<?xml version="1.0" encoding="UTF-8"?>

<!-- generated on 2022-07-15 12:15:34.666301 by randomTrips.py UNKNOWN
<configuration>
    <end value="3600"/>
    <fringe-factor value="5.0"/>
    <fringe-start-attributes value="departSpeed=&quot;max&quot;"/>
    <min-distance value="600.0"/>
    <net-file value="osm.net.xml"/>
    <period value="53.955735"/>
    <route-file value="osm.bus.rou.xml"/>
    <trip-attributes value="departLane=&quot;best&quot;"/>
    <output-trip-file value="osm.bus.trips.xml"/>
    <prefix value="bus"/>
    <validate value="True"/>
    <vclass value="bus"/>
    <vehicle-class value="bus"/>
</configuration>
-->

<!-- generated on 2022-07-15 12:15:34 by Eclipse SUMO duarouter Version 1.14.0
<configuration xmlns:xsi="http://www.w3.org/2001/XMLSchema-instance" xsi:noNamespaceSchemaLocation="http://sumo.dlr.de/xsd/duarouterConfiguration.xsd">

    <input>
        <net-file value="osm.net.xml"/>
        <route-files value="osm.bus.trips.xml"/>
    </input>

    <output>
        <output-file value="osm.bus.trips.xml.tmp"/>
        <alternatives-output value="NUL"/>
        <write-trips value="true"/>
    </output>

    <time>
        <begin value="0"/>
        <end value="3600"/>
    </time>

    <report>
        <no-warnings value="true"/>
        <ignore-errors value="true"/>
        <no-step-log value="true"/>
    </report>

</configuration>
-->

<routes xmlns:xsi="http://www.w3.org/2001/XMLSchema-instance" xsi:noNamespaceSchemaLocation="http://sumo.dlr.de/xsd/routes_file.xsd">
    <vType id="bus_bus" vClass="bus"/>
    <trip id="bus0" type="bus_bus" depart="0.00" departLane="best" departSpeed="max" from="333933989#0" to="333934001#1"/>
    <trip id="bus1" type="bus_bus" depart="53.96" departLane="best" departSpeed="max" from="307690644#0" to="61239093"/>
    <trip id="bus2" type="bus_bus" depart="107.91" departLane="best" departSpeed="max" from="307690644#0" to="666660153"/>
    <trip id="bus3" type="bus_bus" depart="161.87" departLane="best" from="668485027#2" to="668468055"/>
    <trip id="bus4" type="bus_bus" depart="215.82" departLane="best" from="673118336#1" to="666660155#0"/>
    <trip id="bus6" type="bus_bus" depart="323.73" departLane="best" from="668485050#1" to="666660155#2"/>
    <trip id="bus10" type="bus_bus" depart="539.56" departLane="best" from="307292432" to="489467547#1"/>
    <trip id="bus11" type="bus_bus" depart="593.51" departLane="best" from="994397868" to="668452809"/>
    <trip id="bus13" type="bus_bus" depart="701.42" departLane="best" from="673118336#1" to="673118337"/>
    <trip id="bus15" type="bus_bus" depart="809.34" departLane="best" from="666660153" to="489467547#1"/>
    <trip id="bus16" type="bus_bus" depart="863.29" departLane="best" departSpeed="max" from="333933989#0" to="4189987"/>
    <trip id="bus17" type="bus_bus" depart="917.25" departLane="best" from="571092944" to="979435613"/>
    <trip id="bus19" type="bus_bus" depart="1025.16" departLane="best" from="305112616#1" to="666660156"/>
    <trip id="bus20" type="bus_bus" depart="1079.11" departLane="best" from="668453151#0" to="61239094"/>
    <trip id="bus22" type="bus_bus" depart="1187.03" departLane="best" from="4749666" to="333934000"/>
    <trip id="bus23" type="bus_bus" depart="1240.98" departLane="best" from="489692411#1" to="668485032"/>
    <trip id="bus24" type="bus_bus" depart="1294.94" departLane="best" departSpeed="max" from="307690644#0" to="4790252"/>
    <trip id="bus25" type="bus_bus" depart="1348.89" departLane="best" from="994397868" to="668452812#0"/>
    <trip id="bus26" type="bus_bus" depart="1402.85" departLane="best" departSpeed="max" from="333933989#0" to="333934001#1"/>
    <trip id="bus27" type="bus_bus" depart="1456.80" departLane="best" departSpeed="max" from="307690644#0" to="49478489#0"/>
    <trip id="bus28" type="bus_bus" depart="1510.76" departLane="best" from="994397868" to="785100395"/>
    <trip id="bus29" type="bus_bus" depart="1564.72" departLane="best" from="673118336#1" to="305112618#0"/>
    <trip id="bus30" type="bus_bus" depart="1618.67" departLane="best" from="488680655#2" to="333934001#1"/>
    <trip id="bus34" type="bus_bus" depart="1834.49" departLane="best" departSpeed="max" from="307690644#0" to="668485023#1"/>
    <trip id="bus35" type="bus_bus" depart="1888.45" departLane="best" departSpeed="max" from="333933989#0" to="489467547#1"/>
    <trip id="bus36" type="bus_bus" depart="1942.41" departLane="best" from="333935385#1" to="668485050#1"/>
    <trip id="bus39" type="bus_bus" depart="2104.27" departLane="best" from="572132660" to="994397867"/>
    <trip id="bus40" type="bus_bus" depart="2158.23" departLane="best" from="232866970" to="61239094"/>
    <trip id="bus41" type="bus_bus" depart="2212.19" departLane="best" departSpeed="max" from="333933989#0" to="666660155#0"/>
    <trip id="bus42" type="bus_bus" depart="2266.14" departLane="best" from="668452812#0" to="307292432"/>
    <trip id="bus43" type="bus_bus" depart="2320.10" departLane="best" from="666660152#3" to="4189988"/>
    <trip id="bus44" type="bus_bus" depart="2374.05" departLane="best" from="668452813" to="61239094"/>
    <trip id="bus45" type="bus_bus" depart="2428.01" departLane="best" from="668485050#1" to="666660152#3"/>
    <trip id="bus46" type="bus_bus" depart="2481.96" departLane="best" from="333935384#2" to="979435613"/>
    <trip id="bus47" type="bus_bus" depart="2535.92" departLane="best" departSpeed="max" from="333933989#0" to="232866954#0"/>
    <trip id="bus49" type="bus_bus" depart="2643.83" departLane="best" from="668485023#1" to="333935384#2"/>
    <trip id="bus50" type="bus_bus" depart="2697.79" departLane="best" from="668452812#1" to="4790252"/>
    <trip id="bus51" type="bus_bus" depart="2751.74" departLane="best" from="572132660" to="61239093"/>
    <trip id="bus53" type="bus_bus" depart="2859.65" departLane="best" from="489692411#1" to="668485027#2"/>
    <trip id="bus55" type="bus_bus" depart="2967.57" departLane="best" from="333934001#1" to="61239094"/>
    <trip id="bus56" type="bus_bus" depart="3021.52" departLane="best" from="4749666" to="666660152#3"/>
    <trip id="bus57" type="bus_bus" depart="3075.48" departLane="best" from="666660153" to="49478489#1"/>
    <trip id="bus58" type="bus_bus" depart="3129.43" departLane="best" from="4790247#1" to="333934001#1"/>
    <trip id="bus59" type="bus_bus" depart="3183.39" departLane="best" from="668485027#2" to="305112618#0"/>
    <trip id="bus61" type="bus_bus" depart="3291.30" departLane="best" departSpeed="max" from="307690644#0" to="138708547"/>
    <trip id="bus62" type="bus_bus" depart="3345.26" departLane="best" from="668452814" to="673118337"/>
    <trip id="bus65" type="bus_bus" depart="3507.12" departLane="best" departSpeed="max" from="333933989#0" to="785102259"/>
    <trip id="bus66" type="bus_bus" depart="3561.08" departLane="best" departSpeed="max" from="333933989#0" to="668452809"/>
</routes>
