<?xml version="1.0" encoding="UTF-8"?>

<!-- generated on 2022-07-15 12:15:30.151796 by randomTrips.py UNKNOWN
<configuration>
    <allow-fringe.min-length value="1000.0"/>
    <end value="3600"/>
    <fringe-factor value="5.0"/>
    <fringe-start-attributes value="departSpeed=&quot;max&quot;"/>
    <lanes value="True"/>
    <min-distance value="200.0"/>
    <net-file value="osm.net.xml"/>
    <period value="10.985245"/>
    <route-file value="osm.emergency.rou.xml"/>
    <trip-attributes value="departLane=&quot;best&quot;"/>
    <output-trip-file value="osm.emergency.trips.xml"/>
    <prefix value="emergency"/>
    <validate value="True"/>
    <vclass value="emergency"/>
    <vehicle-class value="emergency"/>
</configuration>
-->

<!-- generated on 2022-07-15 12:15:30 by Eclipse SUMO duarouter Version 1.14.0
<configuration xmlns:xsi="http://www.w3.org/2001/XMLSchema-instance" xsi:noNamespaceSchemaLocation="http://sumo.dlr.de/xsd/duarouterConfiguration.xsd">

    <input>
        <net-file value="osm.net.xml"/>
        <route-files value="osm.emergency.trips.xml"/>
    </input>

    <output>
        <output-file value="osm.emergency.trips.xml.tmp"/>
        <alternatives-output value="NUL"/>
        <write-trips value="true"/>
    </output>

    <time>
        <begin value="0"/>
        <end value="3600"/>
    </time>

    <report>
        <no-warnings value="true"/>
        <ignore-errors value="true"/>
        <no-step-log value="true"/>
    </report>

</configuration>
-->

<routes xmlns:xsi="http://www.w3.org/2001/XMLSchema-instance" xsi:noNamespaceSchemaLocation="http://sumo.dlr.de/xsd/routes_file.xsd">
    <vType id="emergency_vehicle" vClass="emergency" guiShape="emergency">
        <param key="has.bluelight.device" value="true"/>
        
    </vType>
</routes>
