<?xml version="1.0" encoding="UTF-8"?>

<!-- generated on 2022-07-14 15:47:18 by Eclipse SUMO polyconvert Version 1.14.0
<configuration xmlns:xsi="http://www.w3.org/2001/XMLSchema-instance" xsi:noNamespaceSchemaLocation="http://sumo.dlr.de/xsd/polyconvertConfiguration.xsd">

    <input>
        <net-file value="osm.net.xml"/>
        <osm-files value="osm_bbox.osm.xml.gz"/>
        <osm.keep-full-type value="true"/>
        <type-file value="/usr/local/opt/sumo/share/sumo/data/typemap/osmPolyconvert.typ.xml"/>
    </input>

    <output>
        <output-file value="osm.poly.xml"/>
    </output>

    <report>
        <verbose value="true"/>
    </report>

</configuration>
-->

<additional xmlns:xsi="http://www.w3.org/2001/XMLSchema-instance" xsi:noNamespaceSchemaLocation="http://sumo.dlr.de/xsd/additional_file.xsd">
    <location netOffset="-16600334.26,4202799.62" convBoundary="-1629.50,-562.27,1398.20,1806.35" origBoundary="149.108702,-35.290005,149.135900,-35.272636" projParameter="+proj=merc +a=6378137 +b=6378137 +lat_ts=0.0 +lon_0=0.0 +x_0=0.0 +y_0=0 +k=1.0 +units=m +nadgrids=@null +wktext +no_defs"/>

    <poly id="1054541160" type="landuse.grass" color="194,194,130" fill="1" layer="-3.00" shape="454.732048,933.399883 453.930548,936.781676 454.331298,940.245285 455.889771,943.340715 458.416723,945.727058 461.611593,947.104319 465.017969,947.322499 468.290762,946.381598 471.062617,944.390706 472.999577,941.581638 473.890133,938.281664 473.622966,934.886236 472.153549,931.668078 469.659992,929.172641 466.453991,927.686288 462.936295,927.413562 459.529918,928.368101 456.680139,930.454450 454.732048,933.399883"/>
    <poly id="1054541500" type="leisure.park" color="207,245,201" fill="1" layer="-2.00" shape="447.318170,958.804212 456.847119,957.958766 466.899269,954.249710 471.608083,950.649743 476.472745,941.390731 477.007078,934.040788 475.415210,910.600028 471.719402,900.536440 467.166435,896.050095 459.285015,894.086467 446.794969,892.654654 436.787346,893.241015 427.102551,899.309173 438.223368,918.590892 444.145565,934.095333 445.893281,940.490738 447.318170,958.804212"/>
    <poly id="1075013247" type="man_made.street_cabinet" color="255,230,230" fill="1" layer="-1.00" shape="350.525873,218.004711 349.178907,216.845554 351.839443,213.763558 353.186409,214.936353 350.525873,218.004711"/>
    <poly id="157049777" type="amenity.bus_station" color="237,199,199" fill="1" layer="-1.00" shape="701.059817,1027.544243 697.764760,998.349214 798.943046,986.922086 784.126421,855.672910 806.178813,853.177456 833.997553,1099.529227 808.327279,1102.420071 798.631351,1016.526230 701.059817,1027.544243"/>
    <poly id="157049778" type="amenity.bus_station" color="237,199,199" fill="1" layer="-1.00" shape="212.912718,851.213820 260.201238,923.609042 213.213281,955.258791 162.785552,886.300130 212.912718,851.213820"/>
    <poly id="157060271" type="building.residential" color="255,230,230" fill="1" layer="-1.00" shape="105.411486,124.262568 124.291272,84.209856 209.762377,74.186427 213.380260,103.465723 185.272089,162.460474 105.411486,124.262568"/>
    <poly id="157993824" type="amenity.motorcycle_parking" color="237,199,199" fill="1" layer="-1.00" shape="1015.615303,939.836198 1026.201786,918.127258 1033.504345,921.659055 1023.029181,943.831620 1015.615303,939.836198"/>
    <poly id="174944466" type="leisure.park" color="207,245,201" fill="1" layer="-2.00" shape="686.232061,626.129692 694.202537,618.506806 700.514352,611.497565 705.612785,605.020149 712.726100,594.438089 717.657553,585.560606 723.435035,572.592103 727.865551,559.023570 730.626274,546.395955 732.251539,532.813752 732.485310,518.358780 731.661545,507.490264 729.757982,495.653525 725.527842,479.943916 723.913709,475.348306 718.102831,462.038753 709.709342,447.542777 703.508846,438.937913 693.634807,427.632939 685.152262,419.655356 672.016562,409.604958 658.313133,401.477357 649.407574,396.731708 643.229342,394.727080 640.880501,393.963412 631.897018,391.167841 620.375450,388.522276 611.180461,387.131308 599.848136,386.313092 593.001988,386.258544 583.562095,386.749474 576.905189,387.499505 565.428150,389.572320 552.938103,392.995190 543.275571,396.554428 533.134366,401.218256 523.048820,406.918487 514.933629,412.373251 508.577286,417.282536 497.679108,427.237469 490.877487,434.683207 484.265109,443.124432 477.096134,454.143016 471.775062,464.193374 466.854741,475.798321 463.170066,487.307798 460.665377,498.271791 458.628230,514.595029 458.394459,526.868124 459.396335,540.300330 461.433482,552.273389 465.997581,568.514727 470.739791,580.310478 476.606328,591.738026 483.842095,603.001922 490.999938,612.165761 499.649463,621.438686 509.924252,630.520690 521.835437,639.029948 532.032303,644.920969 545.546489,651.071083 553.772999,653.975681 565.205511,657.098463 573.610132,658.734856 584.296804,660.016696 593.970467,660.466704 604.657138,660.166699 616.546060,658.843949 629.525913,656.171174 643.028967,651.957462 652.212825,648.180121 663.277982,642.534560 674.933133,635.088962 686.232061,626.129692"/>
    <poly id="207464432" type="landuse.grass" color="194,194,130" fill="1" layer="-3.00" shape="487.582430,150.732462 497.957406,135.554215 504.046583,118.207622 505.438076,99.879116 499.638331,27.887614 431.254768,33.451664 413.187614,36.847370 396.623274,44.797954 382.674942,56.771550 372.299965,71.949906 366.210789,89.296572 364.819295,107.625095 368.214540,125.694480 376.173884,142.263740 388.151861,156.214627 403.324707,166.578912 420.668284,172.674743 439.002604,174.065738 457.069758,170.670074 473.634098,162.705944 487.582430,150.732462"/>
    <poly id="207464434" type="landuse.grass" color="194,194,130" fill="1" layer="-3.00" shape="685.664332,128.176461 696.651566,112.807262 702.740742,95.460632 704.132235,77.132089 700.736991,59.062624 692.777647,42.493240 680.799670,28.542209 665.626824,18.177794 648.283247,12.081878 629.948927,10.690863 610.367828,13.513805 551.212651,22.064451 560.251794,70.927106 572.953347,96.647077 583.417380,113.420939 592.745953,127.740069 606.315799,139.018076 620.342055,145.018462 639.043729,148.400496 655.763917,147.909555 672.328257,139.959046 685.664332,128.176461"/>
    <poly id="209483976" type="building.sports_centre" color="255,230,230" fill="1" layer="-1.00" shape="945.450628,91.410354 1038.213159,112.616340 1042.387640,94.342374 1002.969408,85.328115 1004.182791,80.050475 999.763407,79.041313 1004.060339,60.249073 1010.049328,61.626444 1027.793655,-16.011204 989.132396,-24.848266 975.017084,36.901920 964.241358,34.433555 955.680889,71.908994 950.192838,70.654359 945.450628,91.410354"/>
    <poly id="209483976#1" type="leisure.sports_centre" color="207,245,201" fill="1" layer="-2.00" shape="945.450628,91.410354 1038.213159,112.616340 1042.387640,94.342374 1002.969408,85.328115 1004.182791,80.050475 999.763407,79.041313 1004.060339,60.249073 1010.049328,61.626444 1027.793655,-16.011204 989.132396,-24.848266 975.017084,36.901920 964.241358,34.433555 955.680889,71.908994 950.192838,70.654359 945.450628,91.410354"/>
    <poly id="209483982" type="leisure.park" color="207,245,201" fill="1" layer="-2.00" shape="999.919254,190.280358 1073.234271,129.376540 1001.366408,111.429897 986.082242,171.897423 999.919254,190.280358"/>
    <poly id="210311238" type="building.office" color="255,230,230" fill="1" layer="-1.00" shape="1058.673682,445.769984 1050.892449,462.584226 1043.701210,478.143855 1064.072677,487.566897 1082.607372,447.501866 1073.512570,434.737755 1058.673682,445.769984"/>
    <poly id="210311241" type="building.commercial" color="255,230,230" fill="1" layer="-1.00" shape="1072.911444,538.404822 1062.202509,533.672868 1050.569623,557.414436 995.076857,529.990943 998.149274,494.712585 1031.945872,493.035258 1082.651900,517.581483 1072.911444,538.404822"/>
    <poly id="210311241#1" type="tourism.hotel" color="207,245,201" fill="1" layer="-2.00" shape="1072.911444,538.404822 1062.202509,533.672868 1050.569623,557.414436 995.076857,529.990943 998.149274,494.712585 1031.945872,493.035258 1082.651900,517.581483 1072.911444,538.404822"/>
    <poly id="212505161" type="building.yes" color="255,230,230" fill="1" layer="-1.00" shape="296.881010,220.377575 299.619470,223.745949 302.892263,226.582473 306.610334,228.805326 310.662363,230.346322 314.914768,231.164550 319.256228,231.232736 323.530896,230.550879 327.627454,229.132617 331.412316,227.018862 334.774165,224.277797 337.612812,221.004883 339.839202,217.281943 341.375411,213.231709 342.199175,208.976917 342.265967,204.653937 341.575786,200.371867 340.150896,196.280716 338.046958,192.489581 335.308498,189.121197 332.035705,186.284663 328.317634,184.061801 317.040970,205.963104 295.099898,195.585220 293.552557,199.635460 292.728793,203.890256 292.662002,208.226873 293.352182,212.495303 294.777072,216.600085 296.881010,220.377575"/>
    <poly id="220219605" type="building.office" color="255,230,230" fill="1" layer="-1.00" shape="995.410815,568.569273 985.325269,590.333447 982.520018,589.037962 970.419589,615.124916 946.363447,603.983762 968.549422,556.118947 995.410815,568.569273"/>
    <poly id="220570406" type="landuse.residential" color="235,235,227" fill="1" layer="-3.00" shape="-57.460061,191.589527 -99.360717,146.286725 -110.403611,125.899039 -112.385098,117.689405 -112.941695,107.788743 -112.095667,98.160817 -108.700423,88.246499 -103.601990,80.323221 -96.811501,75.509247 -85.200878,70.695271 -72.176498,69.004243 216.608525,53.144016 217.042671,137.817998 216.352491,147.118596 216.319095,160.169421 155.449597,287.853955 -57.460061,191.589527"/>
    <poly id="223616357" type="building.retail" color="255,230,230" fill="1" layer="-1.00" shape="861.437808,974.281324 826.116133,979.163088 815.473990,902.050070 850.795664,897.168273 861.437808,974.281324"/>
    <poly id="232152564" type="building.commercial" color="255,230,230" fill="1" layer="-1.00" shape="1068.870547,237.710371 1088.485041,222.845897 1099.783970,237.996750 1080.147211,253.202131 1068.870547,237.710371"/>
    <poly id="232847241" type="amenity.fountain" color="237,199,199" fill="1" layer="-1.00" shape="851.229811,671.062337 844.227815,668.007742 849.726997,655.407524 856.773521,658.475760 858.866328,658.325758 860.914606,657.834840 862.851565,657.030280 864.632677,655.912079 876.521599,661.693998 873.783139,664.666776 870.599402,667.175909 867.070574,669.153215 863.274579,670.557784 859.311606,671.348706 855.259576,671.512345 851.229811,671.062337"/>
    <poly id="232847242" type="amenity.fountain" color="237,199,199" fill="1" layer="-1.00" shape="869.987145,631.270705 863.107600,627.957002 857.152007,640.339064 864.076080,643.666400 865.333990,645.357341 866.291338,647.225558 866.948123,649.230140 867.259817,651.302905 879.415906,656.539363 879.872315,652.516563 879.694204,648.466490 878.892704,644.498234 877.467814,640.720890 875.475196,637.189003 872.959375,634.025305 869.987145,631.270705"/>
    <poly id="232848539" type="landuse.residential" color="235,235,227" fill="1" layer="-3.00" shape="108.506168,438.869728 154.414326,460.838710 164.555532,465.693427 209.061064,487.007788 246.063663,408.827655 243.013509,399.295450 204.986771,381.199238 194.578398,376.235389 148.436469,354.279876 108.506168,438.869728"/>
    <poly id="232848885" type="amenity.parking" color="184,184,179" fill="1" layer="-1.00" shape="318.298880,584.251483 308.235598,570.764784 303.237353,544.214076 281.797219,545.318652 282.854754,553.309780 272.268271,554.782547 284.535679,587.660656 260.178974,604.515592 290.368820,648.125574 337.134138,611.974848 318.298880,584.251483"/>
    <poly id="232849461" type="building.apartments" color="255,230,230" fill="1" layer="-1.00" shape="954.434110,781.913597 943.680648,777.004474 948.823608,765.713483 959.577071,742.149637 995.299495,758.431605 979.403072,793.286391 954.434110,781.913597"/>
    <poly id="232849462" type="building.yes" color="255,230,230" fill="1" layer="-1.00" shape="910.774606,818.472860 881.942858,805.327357 892.106328,783.045423 920.938076,796.190951 910.774606,818.472860"/>
    <poly id="232849463" type="building.office" color="255,230,230" fill="1" layer="-1.00" shape="1006.375785,680.280666 1028.906850,690.726279 1069.594124,602.961012 1040.461813,589.460699 998.772664,570.137495 995.410815,568.569273 985.325269,590.333447 988.631458,591.874392 1030.320607,611.197558 1036.977513,614.279443 1017.852824,655.530254 1006.375785,680.280666"/>
    <poly id="232849464" type="building.yes" color="255,230,230" fill="1" layer="-1.00" shape="864.810788,883.122867 872.180139,865.791084 880.428913,848.609274 933.194352,873.918343 936.578464,883.900137 925.090293,907.736406 920.949208,909.072763 864.810788,883.122867"/>
    <poly id="232849465" type="building.yes" color="255,230,230" fill="1" layer="-1.00" shape="948.823608,765.713483 924.400112,754.572481 935.142443,731.008612 959.577071,742.149637 948.823608,765.713483"/>
    <poly id="232849466" type="building.office" color="255,230,230" fill="1" layer="-1.00" shape="963.395329,630.288867 970.419589,615.124916 946.363447,603.983762 934.084908,630.452507 927.862148,643.884586 951.918290,655.039336 963.395329,630.288867"/>
    <poly id="232849467" type="building.office" color="255,230,230" fill="1" layer="-1.00" shape="979.403072,793.286391 958.085390,840.045631 910.774606,818.472860 920.938076,796.190951 943.279897,806.377362 954.434110,781.913597 979.403072,793.286391"/>
    <poly id="232849570" type="building.office" color="255,230,230" fill="1" layer="-1.00" shape="223.877688,657.916660 251.184359,696.249085 269.863770,682.939798 242.545967,644.607327 223.877688,657.916660"/>
    <poly id="232850482" type="leisure.park" color="207,245,201" fill="1" layer="-2.00" shape="635.681880,363.825757 637.618840,365.503104 655.719389,376.630861 673.229945,383.994812 683.950012,390.690548 703.698089,405.091140 716.110213,417.787101 728.856294,435.610515 740.700688,460.170505 748.671164,483.475853 752.979228,507.735726 753.546957,532.377376 750.352088,556.800783 759.869904,557.482620 803.518277,465.297958 828.286863,449.315569 772.838625,366.498602 743.171981,386.804021 679.942510,333.224362 666.662095,335.679022 652.635839,329.596918 618.872637,331.506099 601.573588,198.762681 585.699429,200.917353 576.983113,202.267433 582.348712,236.673949 526.588780,244.460744 524.930119,209.386031 444.535183,224.823283 430.041385,216.572811 403.925833,225.750608 391.892196,232.623723 381.528351,241.351482 367.279456,254.852220 358.028807,272.184962 340.473723,307.409482 383.643421,326.869516 369.138492,357.102730 457.659751,394.699806 441.707668,424.469180 461.344426,435.433236 503.211686,392.313343 528.124988,392.245158 572.964479,375.839918 621.967319,376.549039 635.681880,363.825757"/>
    <poly id="232852301" type="building.retail" color="255,230,230" fill="1" layer="-1.00" shape="960.122536,920.199973 969.829596,900.836439 982.542282,896.336458 1024.442938,916.218178 1010.750641,945.072518 997.603809,938.608935 960.122536,920.199973"/>
    <poly id="232857511" type="amenity.fountain" color="237,199,199" fill="1" layer="-1.00" shape="1028.038558,732.072259 1028.161009,731.731347 1028.272329,731.376797 1028.350252,731.022248 1028.405912,730.667699 1028.450440,730.299513 1028.461572,729.931327 1028.450440,729.576778 1028.417044,729.208592 1028.372516,728.854042 1028.294593,728.485856 1028.194405,728.144943 1028.071954,727.804030 1027.927238,727.463118 1027.760259,727.135841 1027.582148,726.822201 1027.381773,726.522198 1027.159134,726.235831 1026.914231,725.949464 1026.658196,725.690370 1026.391029,725.458549 1026.101599,725.226728 1025.801036,725.022181 1025.489341,724.831269 1025.166515,724.667631 1024.832556,724.517629 1024.498598,724.394901 1024.142376,724.285809 1023.786153,724.203989 1023.429931,724.149443 1023.062576,724.108534 1022.706354,724.094897 1022.339000,724.108534 1021.971645,724.135807 1021.615423,724.190353 1021.259201,724.272172 1020.914110,724.367628 1020.569020,724.490356 1020.235061,724.626722 1019.901103,724.790360 1019.589408,724.981271 1019.288846,725.172182 1018.999415,725.404003 1018.721116,725.635824 1018.465082,725.894918 1018.220179,726.167648 1017.997540,726.454015 1017.786033,726.754019 1017.596789,727.067659 1017.429810,727.381298 1017.285095,727.722211 1017.162643,728.063124 1017.051324,728.417674 1016.973400,728.772223 1016.917741,729.126773 1016.873213,729.494958 1016.862081,729.849508 1016.873213,730.217694 1016.906609,730.585880 1016.962268,730.940429 1017.040192,731.294978 1017.129248,731.649528 1017.251699,731.990440 1017.396414,732.331353 1017.563394,732.658629 1017.741505,732.972269 1017.941880,733.272272 1018.164519,733.558639 1018.409422,733.831369 1018.665457,734.090463 1018.932623,734.335920 1019.222054,734.567741 1019.522617,734.772288 1019.834311,734.963200 1020.157138,735.126838 1020.491096,735.276839 1020.836187,735.399568 1021.181277,735.495023 1021.537499,735.590479 1021.893722,735.645025 1022.261076,735.685934 1022.617299,735.699571 1022.984653,735.685934 1023.352007,735.658661 1023.708230,735.604115 1024.064452,735.522296 1024.409542,735.426841 1024.754633,735.304112 1025.088591,735.154111 1025.422550,734.990473 1025.734244,734.813198 1026.034807,734.608650 1026.324238,734.390466 1026.602536,734.145009 1026.858571,733.899552 1027.103474,733.626822 1027.326113,733.340455 1027.537620,733.040452 1027.726863,732.726812 1027.893842,732.399536 1028.038558,732.072259"/>
    <poly id="232886019" type="leisure.common" color="207,245,201" fill="1" layer="-2.00" shape="573.098063,175.579467 649.095879,166.060698 612.917045,158.614778 593.870280,147.104959 590.308056,147.241331 586.812624,147.977742 583.495303,149.314190 580.456281,151.196128 577.784613,153.569006 575.558224,156.364637 573.855035,159.501198 572.697313,162.883227 572.140715,166.401628 573.098063,175.579467"/>
    <poly id="232886020" type="leisure.common" color="207,245,201" fill="1" layer="-2.00" shape="524.774272,182.179869 448.720796,191.262235 482.038719,175.320360 497.745899,159.555746 501.241331,158.819337 504.814687,158.696602 508.354647,159.201179 511.749891,160.292156 514.911365,161.942259 517.750012,164.124214 520.165645,166.756196 522.102604,169.756381 523.482966,173.042948 524.774272,182.179869"/>
    <poly id="233954192" type="landuse.retail" color="194,194,130" fill="1" layer="-3.00" shape="513.319496,1010.253595 522.147132,1017.317128 562.778746,1011.944480 570.081305,1011.139946 610.067266,1005.671841 616.980206,996.767416 602.931686,889.954664 593.914808,883.231957 553.806395,888.591032 546.403649,889.572847 506.306368,894.931918 499.504747,903.768244 513.319496,1010.253595"/>
    <poly id="233954193" type="landuse.retail" color="194,194,130" fill="1" layer="-3.00" shape="796.616468,979.803989 780.987212,854.882001 674.732758,868.163808 690.350882,993.099282 796.616468,979.803989"/>
    <poly id="255645014" type="building.office" color="255,230,230" fill="1" layer="-1.00" shape="908.281050,747.563326 901.935839,761.486176 879.182135,751.122450 885.527346,737.199587 908.281050,747.563326"/>
    <poly id="255645015" type="building.office" color="255,230,230" fill="1" layer="-1.00" shape="885.527346,737.199587 896.881934,712.299300 902.948846,715.067516 924.912181,725.076727 913.568725,749.976985 908.281050,747.563326 885.527346,737.199587"/>
    <poly id="279984863" type="amenity.university" color="237,199,199" fill="1" layer="-2.00" shape="-1622.523046,430.564869 -1395.230910,257.197801 -1139.919657,72.386300 -1025.338506,-2.469238 -915.032022,-63.033182 -901.929718,-174.165677 -913.896563,-278.453133 -887.680823,-307.515238 -701.688218,-328.326534 -709.781145,-433.433723 -689.354018,-474.511309 -634.072759,-509.274630 -591.326075,-562.272200 -529.532626,-516.475520 -554.601775,-281.753472 -613.790348,-98.190696 -460.314166,-48.045586 -329.914515,24.178246 -224.595144,63.303837 -104.225379,206.740423 -140.804964,253.883986 -189.830067,263.075389 -264.224883,250.420161 -325.806825,268.012015 -365.881842,291.181397 -379.407160,297.631723 -392.654180,297.631723 -395.904709,300.004569 -408.383624,309.086838 -384.082579,337.138181 -217.570884,575.864913 -124.285151,536.741138 -32.001293,545.768665 102.060769,697.599104 111.322551,708.085609 121.274514,723.863076 121.619604,731.758620 141.055987,760.395258 168.240207,791.950020 171.691111,803.909170 175.153147,808.900099 179.639323,814.600120 30.181774,916.913629 271.923180,1249.920287 288.854875,1252.020211 337.356777,1258.319981 355.869208,1400.391113 191.450321,1420.149205 148.848351,1438.584604 -156.601199,1669.406295 -179.533014,1681.855367 -189.818935,1687.118607 -230.450550,1707.885198 -567.481440,1771.439181 -658.529651,1802.977419 -668.258975,1806.345311 -700.485968,1766.557768 -840.804186,1573.044826 -857.468713,1535.738108 -899.736724,1495.049643 -967.363315,1397.704882 -1135.199711,1160.400422 -1140.197956,1147.214419 -1163.430334,1113.342545 -1345.059215,860.445635 -1629.502778,472.416387 -1622.523046,430.564869"/>
    <poly id="30090971" type="building.retail" color="255,230,230" fill="1" layer="-1.00" shape="499.504747,903.768244 506.306368,894.931918 546.403649,889.572847 549.498331,911.718204 547.305337,914.063645 526.622175,916.422723 527.089717,919.572704 538.288458,918.181803 547.895330,985.613011 539.646556,986.717543 540.269945,990.344771 557.090320,988.149344 559.906703,989.990230 562.778746,1011.944480 522.147132,1017.317128 513.319496,1010.253595 499.504747,903.768244"/>
    <poly id="30090980" type="building.retail" color="255,230,230" fill="1" layer="-1.00" shape="570.081305,1011.139946 610.067266,1005.671841 616.980206,996.767416 602.931686,889.954664 593.914808,883.231957 553.806395,888.591032 556.812021,910.409120 559.138599,912.345473 577.339335,909.890941 577.929329,913.450012 567.598880,914.950004 565.561733,917.499989 573.788244,980.008532 576.292932,981.903965 586.645645,980.594889 587.157714,984.263028 569.112825,986.594818 567.064546,989.349329 570.081305,1011.139946"/>
    <poly id="30091162" type="building.retail" color="255,230,230" fill="1" layer="-1.00" shape="741.357473,985.449377 693.913106,991.408394 678.317245,871.709257 726.819148,865.095630 729.468551,886.941037 709.620286,889.422847 709.408779,887.718307 703.609034,888.441032 713.371753,966.304137 738.552222,963.154169 741.357473,985.449377"/>
    <poly id="30091164" type="building.retail" color="255,230,230" fill="1" layer="-1.00" shape="749.606247,984.440298 796.115531,978.604003 779.751565,859.572908 733.732088,864.741085 736.259040,884.322863 745.576482,883.163776 755.005243,958.422398 746.478170,959.499660 749.606247,984.440298"/>
    <poly id="30617545" type="building.office" color="255,230,230" fill="1" layer="-1.00" shape="368.537366,760.899808 389.699202,790.531830 438.412611,754.995212 417.517942,725.485822 389.387507,745.817855 368.537366,760.899808"/>
    <poly id="30617546" type="amenity.police" color="237,199,199" fill="1" layer="-1.00" shape="306.432223,665.512245 327.939148,695.880898 345.394044,683.512534 373.045806,663.930400 351.538880,633.561659 306.432223,665.512245"/>
    <poly id="30617546#1" type="building.office" color="255,230,230" fill="1" layer="-1.00" shape="306.432223,665.512245 327.939148,695.880898 345.394044,683.512534 373.045806,663.930400 351.538880,633.561659 306.432223,665.512245"/>
    <poly id="30617547" type="amenity.courthouse" color="237,199,199" fill="1" layer="-1.00" shape="466.064372,736.885947 481.526650,758.758881 484.688123,762.590731 487.482242,765.127114 490.599188,767.008947 495.141023,768.713506 498.603060,769.586240 502.143019,769.872605 504.002055,769.886242 533.969262,766.490761 528.837433,729.604051 545.101211,691.189922 520.265832,681.876146 511.260086,689.308076 506.206181,682.353426 490.610320,694.203601 501.898116,710.676552 466.064372,736.885947"/>
    <poly id="30617547#1" type="building.yes" color="255,230,230" fill="1" layer="-1.00" shape="466.064372,736.885947 481.526650,758.758881 484.688123,762.590731 487.482242,765.127114 490.599188,767.008947 495.141023,768.713506 498.603060,769.586240 502.143019,769.872605 504.002055,769.886242 533.969262,766.490761 528.837433,729.604051 545.101211,691.189922 520.265832,681.876146 511.260086,689.308076 506.206181,682.353426 490.610320,694.203601 501.898116,710.676552 466.064372,736.885947"/>
    <poly id="30704904" type="building.yes" color="255,230,230" fill="1" layer="-1.00" shape="861.827426,550.664254 901.635276,568.937465 886.762992,601.351884 846.955142,583.078727 861.827426,550.664254"/>
    <poly id="347384261" type="building.office" color="255,230,230" fill="1" layer="-1.00" shape="1036.376388,374.353490 1052.885068,396.663523 1049.200393,399.377271 1032.803032,376.944511 1036.376388,374.353490"/>
    <poly id="34817358" type="building.retail" color="255,230,230" fill="1" layer="-1.00" shape="1068.959603,971.840442 1082.451525,942.713447 1031.756629,919.231797 1018.264706,948.358854 1030.309475,953.936076 1068.959603,971.840442"/>
    <poly id="34817361" type="building.retail" color="255,230,230" fill="1" layer="-1.00" shape="997.603809,938.608935 981.050601,972.304073 943.580460,953.895168 960.122536,920.199973 997.603809,938.608935"/>
    <poly id="34817376" type="building.office" color="255,230,230" fill="1" layer="-1.00" shape="901.935839,761.486176 892.106328,783.045423 881.942858,805.327357 859.189154,794.950036 879.182135,751.122450 901.935839,761.486176"/>
    <poly id="34817377" type="building.retail" color="255,230,230" fill="1" layer="-1.00" shape="872.180139,865.791084 858.944251,860.731998 849.203796,868.259262 850.428310,870.018350 857.497098,864.836540 862.217044,870.931985 841.979161,886.545584 837.181291,879.536513 843.949516,874.641069 842.391043,871.968347 832.194178,880.259238 834.721130,898.463722 814.939657,901.204619 809.919147,863.118360 815.496254,862.395633 823.177299,860.281998 830.223823,857.282000 836.869596,852.168365 843.136884,846.277455 848.023809,840.413814 850.595289,834.645624 880.428913,848.609274 872.180139,865.791084"/>
    <poly id="34817378" type="building.office" color="255,230,230" fill="1" layer="-1.00" shape="951.918290,655.039336 1006.375785,680.280666 1017.852824,655.530254 963.395329,630.288867 951.918290,655.039336"/>
    <poly id="37625904" type="building.commercial" color="255,230,230" fill="1" layer="-1.00" shape="1153.684867,385.590334 1186.624304,402.663769 1196.620795,383.394786 1175.458959,372.430679 1163.837205,364.807618 1165.896615,361.916581 1156.935396,355.507204 1155.031833,358.166414 1152.315637,356.216327 1153.929770,353.966226 1094.440634,272.062228 1091.078785,274.503265 1088.362590,270.780342 1091.357084,268.598409 1080.147211,253.202131 1068.870547,237.710371 1061.434405,227.482524 1040.918223,242.415177 1120.934673,352.329788 1142.018584,377.080880 1153.684867,385.590334"/>
    <poly id="37625906" type="building.office" color="255,230,230" fill="1" layer="-1.00" shape="872.948243,294.536113 853.645443,267.439257 857.096348,264.984581 853.300353,259.652478 893.208390,231.205461 888.143354,224.114151 912.077044,207.054077 906.344090,199.021787 942.099911,173.533887 975.996696,221.100343 872.948243,294.536113"/>
    <poly id="37625908" type="building.office" color="255,230,230" fill="1" layer="-1.00" shape="1050.892449,462.584226 996.390426,437.369672 986.182429,459.434115 1040.695584,484.648619 1043.701210,478.143855 1050.892449,462.584226"/>
    <poly id="37625910" type="building.office" color="255,230,230" fill="1" layer="-1.00" shape="1075.160098,434.737755 1049.200393,399.377271 1052.885068,396.663523 1084.444144,373.507999 1110.403849,408.868565 1075.160098,434.737755"/>
    <poly id="37625911" type="building.apartments" color="255,230,230" fill="1" layer="-1.00" shape="271.177340,877.845608 286.817728,866.445628 301.289262,886.313766 325.178425,868.913807 335.497742,883.068321 311.564051,900.509168 315.649476,906.113687 300.064748,917.486353 290.613723,904.518240 271.177340,877.845608"/>
    <poly id="37625912" type="building.office" color="255,230,230" fill="1" layer="-1.00" shape="308.480501,928.859007 322.050347,947.486134 358.641064,920.595425 345.071218,901.968252 308.480501,928.859007"/>
    <poly id="37625915" type="building.office" color="255,230,230" fill="1" layer="-1.00" shape="250.171352,849.563819 236.289811,830.295617 273.292410,803.636441 287.173951,822.891054 250.171352,849.563819"/>
    <poly id="37625916" type="building.office" color="255,230,230" fill="1" layer="-1.00" shape="285.715665,842.677452 298.773442,861.113816 336.521881,834.372897 323.464105,815.936488 285.715665,842.677452"/>
    <poly id="37625917" type="building.office" color="255,230,230" fill="1" layer="-1.00" shape="352.418304,827.145610 326.814821,790.381830 336.655464,783.522698 339.772410,787.995452 343.134259,785.649984 365.631928,817.941040 352.418304,827.145610"/>
    <poly id="37625918" type="building.office" color="255,230,230" fill="1" layer="-1.00" shape="326.581050,765.290752 296.636107,786.154533 308.480501,803.159166 326.814821,790.381830 336.655464,783.522698 338.425444,782.295418 326.581050,765.290752"/>
    <poly id="37625920" type="building.office" color="255,230,230" fill="1" layer="-1.00" shape="275.997474,759.249794 263.997233,742.463277 293.686141,721.258500 305.686382,738.045050 275.997474,759.249794"/>
    <poly id="37625921" type="building.office" color="255,230,230" fill="1" layer="-1.00" shape="242.545967,644.607327 229.009517,625.611499 194.856697,649.952881 208.393147,668.948666 223.877688,657.916660 242.545967,644.607327"/>
    <poly id="37625923" type="building.office" color="255,230,230" fill="1" layer="-1.00" shape="173.605806,667.585007 136.658867,693.003584 173.694862,746.840592 191.995786,734.254101 170.199430,702.562809 188.845444,689.744446 173.605806,667.585007"/>
    <poly id="37625924" type="building.office" color="255,230,230" fill="1" layer="-1.00" shape="205.509972,720.167578 217.087199,736.517761 255.570347,709.258352 243.993120,692.908128 205.509972,720.167578"/>