<?xml version="1.0" encoding="UTF-8"?>

<!-- generated on 2022-07-15 12:15:27.560899 by randomTrips.py UNKNOWN
<configuration>
    <allow-fringe.min-length value="1000.0"/>
    <end value="3600"/>
    <fringe-factor value="5.0"/>
    <fringe-start-attributes value="departSpeed=&quot;max&quot;"/>
    <lanes value="True"/>
    <min-distance value="300.0"/>
    <net-file value="osm.net.xml"/>
    <period value="17.985245"/>
    <route-file value="osm.passenger.rou.xml"/>
    <trip-attributes value="departLane=&quot;best&quot;"/>
    <output-trip-file value="osm.passenger.trips.xml"/>
    <prefix value="veh"/>
    <validate value="True"/>
    <vehicle-class value="passenger"/>
</configuration>
-->

<!-- generated on 2022-07-15 12:15:27 by Eclipse SUMO duarouter Version 1.14.0
<configuration xmlns:xsi="http://www.w3.org/2001/XMLSchema-instance" xsi:noNamespaceSchemaLocation="http://sumo.dlr.de/xsd/duarouterConfiguration.xsd">

    <input>
        <net-file value="osm.net.xml"/>
        <route-files value="osm.passenger.trips.xml"/>
    </input>

    <output>
        <output-file value="osm.passenger.rou.xml"/>
        <alternatives-output value="NUL"/>
    </output>

    <time>
        <begin value="0"/>
        <end value="3600"/>
    </time>

    <report>
        <no-warnings value="true"/>
        <ignore-errors value="true"/>
        <no-step-log value="true"/>
    </report>

</configuration>
-->

<routes xmlns:xsi="http://www.w3.org/2001/XMLSchema-instance" xsi:noNamespaceSchemaLocation="http://sumo.dlr.de/xsd/routes_file.xsd">

    

    <vType id="veh_passenger" vClass="passenger">


    <!-- <vType id="veh_passenger" vClass="passenger"/> -->
    <vehicle id="veh1" type="veh_passenger" depart="17.99" departLane="best" departSpeed="max">
        <route edges="333933989#0 668485027#2 668485032 307292431 994397868 4189987"/>
    </vehicle>
    <vehicle id="veh3" type="veh_passenger" depart="53.96" departLane="best">
        <route edges="183079037#1 668485050#1 668485040 673118336#1 333934000 333934001#1"/>
    </vehicle>
    <vehicle id="veh4" type="veh_passenger" depart="71.94" departLane="best">
        <route edges="666660154#1 572132657 673118337 307292432 666660156 4189988 49478489#0 49478489#1 838023770#1 232866966#3 232866970 232866954#0 232866954#1 138708547 4790252 61239094"/>
    </vehicle>
    <vehicle id="veh5" type="veh_passenger" depart="89.93" departLane="best">
        <route edges="668485023#1 838023770#1 232866966#3 75867438#0 75867438#1 785100395 489467563 785102259 489467557#0 117617939#0 117617939#1"/>
    </vehicle>
    <vehicle id="veh6" type="veh_passenger" depart="107.91" departLane="best">
        <route edges="668485023#0 668485023#1 838023770#1 232866966#3 75867438#0 75867438#1 785100395 668452809 571092944 572132660 668452813"/>
    </vehicle>
    <vehicle id="veh8" type="veh_passenger" depart="143.88" departLane="best">
        <route edges="668485040 673118336#1 333934000 333934001#1 668452814 489467563 489692411#1 305112616#1 305112616#3 333935385#1 666660153"/>
    </vehicle>
    <vehicle id="veh10" type="veh_passenger" depart="179.85" departLane="best">
        <route edges="668485027#2 668485032 307292431 994397868 4189987 666660155#0 666660155#2 305112618#0 666660152#1 666660152#3 333935384#2 668468055 489692411#1 305112616#1 305112616#3 333935385#1 666660153 666660154#1"/>
    </vehicle>
    <vehicle id="veh11" type="veh_passenger" depart="197.84" departLane="best">
        <route edges="673118336#1 333934000 333934001#1 668452814 489467563 785102259 489467557#0 489467557#1 232866954#0 232866954#1 138708547 4790252 61239094"/>
    </vehicle>
    <vehicle id="veh13" type="veh_passenger" depart="233.81" departLane="best" departSpeed="max">
        <route edges="307690644#0 668453151#0 785102259 489467557#0 489467557#1 232866954#0 232866954#1 138708547 4790252"/>
    </vehicle>
    <vehicle id="veh14" type="veh_passenger" depart="251.79" departLane="best">
        <route edges="232866966#0 183079037#1 668485027#2 668485032 307292431 994397868 4189987"/>
    </vehicle>
    <vehicle id="veh16" type="veh_passenger" depart="287.76" departLane="best">
        <route edges="666660153 666660154#1 572132657 673118337 307292432 666660156 4189988 49478489#0 49478489#1 838023770#1 232866966#3 75867438#0 75867438#1 785100395 489467547#1"/>
    </vehicle>
    <vehicle id="veh19" type="veh_passenger" depart="341.72" departLane="best">
        <route edges="307292431 994397868 4189987 666660155#0 666660155#2 305112618#0 666660152#1 666660152#3 333935384#2 668468055 489692410 489467547#1"/>
    </vehicle>
    <vehicle id="veh20" type="veh_passenger" depart="359.70" departLane="best">
        <route edges="668485040 673118336#1 333934000 333934001#1 668452814 668452809 571092944 572132660 668452813 668452812#0 668452812#1 543219906#0 668485023#0 668485023#1 668485027#2 668485032"/>
    </vehicle>
    <vehicle id="veh23" type="veh_passenger" depart="413.66" departLane="best" departSpeed="max">
        <route edges="307690644#0 668453151#0 785102259 489467557#0 489467557#1 232866954#0 232866954#1 979435612 232866966#0 183079037#1 979435613"/>
    </vehicle>
    <vehicle id="veh24" type="veh_passenger" depart="431.65" departLane="best">
        <route edges="673118337 307292432 666660156 4189988 49478489#0 49478489#1 838023770#1 232866966#3 75867438#0 75867438#1 785100395 489467547#1"/>
    </vehicle>
    <vehicle id="veh25" type="veh_passenger" depart="449.63" departLane="best">
        <route edges="666660154#1 572132657 673118337 307292432 666660156 4189988 49478489#0 49478489#1 838023770#1 232866966#3 75867438#0 75867438#1 785100395 489467547#1"/>
    </vehicle>
    <vehicle id="veh29" type="veh_passenger" depart="521.57" departLane="best">
        <route edges="994397868 4189987 666660155#0 666660155#2 305112618#0 666660152#1 666660152#3 333935384#2 668468055 489692411#1 305112616#1 305112616#3 333935385#1 666660153 666660154#1 572132657"/>
    </vehicle>
    <vehicle id="veh30" type="veh_passenger" depart="539.56" departLane="best">
        <route edges="305112616#1 305112616#3 333935385#1 666660153 666660154#1 572132657 673118337 307292432 666660156 4189988 49478489#0 49478489#1 668485027#2 668485032 307292431 994397868 4189987 666660155#0"/>
    </vehicle>
    <vehicle id="veh31" type="veh_passenger" depart="557.54" departLane="best">
        <route edges="232866954#1 979435612 232866966#0 232866966#3 75867438#0 75867438#1 785100395 489467547#1"/>
    </vehicle>
    <vehicle id="veh32" type="veh_passenger" depart="575.53" departLane="best">
        <route edges="838023770#1 232866966#3 75867438#0 75867438#1"/>
    </vehicle>
    <vehicle id="veh34" type="veh_passenger" depart="611.50" departLane="best">
        <route edges="666660155#2 305112618#0 666660152#1 666660152#3 333935384#2 668468055 785102259 489467557#0 489467557#1 232866954#0 232866954#1 138708547 4790252 61239094"/>
    </vehicle>
    <vehicle id="veh35" type="veh_passenger" depart="629.48" departLane="best" departSpeed="max">
        <route edges="333933989#0 668485027#2 668485032 307292431 994397868 4189987 666660155#0 666660155#2"/>
    </vehicle>
    <vehicle id="veh36" type="veh_passenger" depart="647.47" departLane="best">
        <route edges="488680655#1 488680655#2 307292431 994397868 4189987 666660155#0 666660155#2 305112618#0 666660152#1 666660152#3 333935384#2 668468055 785102259 489467557#0 489467557#1 232866954#0 232866954#1 979435612 232866966#0 183079037#1 979435613"/>
    </vehicle>
    <vehicle id="veh38" type="veh_passenger" depart="683.44" departLane="best">
        <route edges="489467563 489692411#1 305112616#1 305112616#3 333935385#1 666660153 666660154#1 572132657 673118337 307292432"/>
    </vehicle>
    <vehicle id="veh40" type="veh_passenger" depart="719.41" departLane="best" departSpeed="max">
        <route edges="333933989#0 668485027#2 668485032 307292431 994397868 4189987 666660155#0 666660155#2"/>
    </vehicle>
    <vehicle id="veh42" type="veh_passenger" depart="755.38" departLane="best">
        <route edges="668452814 489467563 785102259 489467557#0 489467557#1 232866954#0 232866954#1 138708547 4790252 61239094"/>
    </vehicle>
    <vehicle id="veh43" type="veh_passenger" depart="773.37" departLane="best">
        <route edges="668453151#0 489692411#1 305112616#1 305112616#3 333935385#1 666660153 666660154#1 572132657 673118337 994397867 74098875 205017220 675393890 61239093"/>
    </vehicle>
    <vehicle id="veh45" type="veh_passenger" depart="809.34" departLane="best">
        <route edges="673118337 994397867 74098875 205017220 675393890"/>
    </vehicle>
    <vehicle id="veh46" type="veh_passenger" depart="827.32" departLane="best">
        <route edges="333934000 333934001#1 668452814 489467563 785102259 489467557#0 489467557#1 232866954#0"/>
    </vehicle>
    <vehicle id="veh47" type="veh_passenger" depart="845.31" departLane="best">
        <route edges="673118337 307292432 666660156 4189988 49478489#0 49478489#1 979435613"/>
    </vehicle>
    <vehicle id="veh48" type="veh_passenger" depart="863.29" departLane="best">
        <route edges="668453151#0 489692411#1 305112616#1 305112616#3"/>
    </vehicle>
    <vehicle id="veh49" type="veh_passenger" depart="881.28" departLane="best">
        <route edges="489467557#0 489467557#1 232866954#0 232866954#1 138708547 4790252 61239094"/>
    </vehicle>
    <vehicle id="veh51" type="veh_passenger" depart="917.25" departLane="best">
        <route edges="4790247#1 307292406 232866966#0 232866966#3 75867438#0 75867438#1 785100395 489467563 489692411#1 305112616#1 305112616#3 333935385#1"/>
    </vehicle>
    <vehicle id="veh53" type="veh_passenger" depart="953.22" departLane="best">
        <route edges="4790247#1 307292406 232866966#0 232866966#3 75867438#0 75867438#1 785100395 489467563 489692411#1 305112616#1 305112616#3 333935385#1 666660153 666660154#1 572132657"/>
    </vehicle>
    <vehicle id="veh54" type="veh_passenger" depart="971.20" departLane="best">
        <route edges="305112616#3 333935385#1 666660153 666660154#1 572132657 673118337 307292432 666660156 4189988 49478489#0 49478489#1 668485027#2 668485032 307292431 994397868 4189987"/>
    </vehicle>
    <vehicle id="veh55" type="veh_passenger" depart="989.19" departLane="best" departSpeed="max">
        <route edges="307690644#0 668453151#0 785102259 489467557#0 489467557#1 232866954#0 232866954#1 979435612 232866966#0 183079037#1 668485027#2 668485032 307292431 994397868 4189987"/>
    </vehicle>
    <vehicle id="veh56" type="veh_passenger" depart="1007.17" departLane="best">
        <route edges="232866966#0 183079037#1 668485027#2 668485032 307292431 994397868 4189987 666660155#0"/>
    </vehicle>
    <vehicle id="veh57" type="veh_passenger" depart="1025.16" departLane="best" departSpeed="max">
        <route edges="307690644#0 668453151#0 785102259 489467557#0 489467557#1 232866954#0 232866954#1 979435612 232866966#0 183079037#1 838023770#1"/>
    </vehicle>
    <vehicle id="veh58" type="veh_passenger" depart="1043.14" departLane="best">
        <route edges="668485050#1 668485040 673118336#1 333934000 333934001#1 668452814 489467563 785102259 489467557#0 489467557#1 232866954#0 232866954#1"/>
    </vehicle>
    <vehicle id="veh59" type="veh_passenger" depart="1061.13" departLane="best" departSpeed="max">
        <route edges="307690644#0 668453151#0 489692410 668452809 571092944 572132660 668452813 668452812#0"/>
    </vehicle>
    <vehicle id="veh60" type="veh_passenger" depart="1079.11" departLane="best" departSpeed="max">
        <route edges="307690644#0 668453151#0 489692411#1 305112616#1 305112616#3"/>
    </vehicle>
    <vehicle id="veh61" type="veh_passenger" depart="1097.10" departLane="best">
        <route edges="489467557#0 489467557#1 232866954#0 232866954#1 979435612 232866966#0 183079037#1 668485050#1 668485040"/>
    </vehicle>
    <vehicle id="veh62" type="veh_passenger" depart="1115.09" departLane="best">
        <route edges="668485023#0 668485023#1 668485050#1 668485040 673118336#1 333934000"/>
    </vehicle>
    <vehicle id="veh63" type="veh_passenger" depart="1133.07" departLane="best">
        <route edges="232866966#3 75867438#0 75867438#1 785100395 489467563"/>
    </vehicle>
    <vehicle id="veh64" type="veh_passenger" depart="1151.06" departLane="best">
        <route edges="4790247#1 307292406 232866966#0 232866966#3 75867438#0 75867438#1 785100395 489467563 489692411#1 305112616#1 305112616#3 333935385#1 666660153 666660154#1 572132657 673118337 307292432 666660156 4189988 49478489#0"/>
    </vehicle>
    <vehicle id="veh66" type="veh_passenger" depart="1187.03" departLane="best">
        <route edges="4749666 49478489#0 49478489#1 838023770#1 232866966#3 75867438#0 75867438#1 785100395 489467547#1"/>
    </vehicle>
    <vehicle id="veh67" type="veh_passenger" depart="1205.01" departLane="best" departSpeed="max">
        <route edges="307690644#0 668453151#0 785102259 489467557#0 489467557#1 232866954#0 232866954#1 979435612 232866966#0 183079037#1 979435613"/>
    </vehicle>
    <vehicle id="veh69" type="veh_passenger" depart="1240.98" departLane="best">
        <route edges="785102259 489467557#0 489467557#1 232866954#0 232866954#1 979435612 232866966#0 183079037#1 979435613"/>
    </vehicle>
    <vehicle id="veh70" type="veh_passenger" depart="1258.97" departLane="best">
        <route edges="668485040 673118336#1 333934000 333934001#1 668452814 668452809 571092944 572132660 668452813 668452812#0 668452812#1 543219906#0 668485023#0 668485023#1 668485027#2 668485032 307292431"/>
    </vehicle>
    <vehicle id="veh71" type="veh_passenger" depart="1276.95" departLane="best">
        <route edges="489467557#1 232866954#0 232866954#1 979435612 232866966#0 232866966#3 75867438#0 75867438#1 785100395 489467563 489692411#1 305112616#1 305112616#3 333935385#1"/>
    </vehicle>
    <vehicle id="veh73" type="veh_passenger" depart="1312.92" departLane="best">
        <route edges="488680655#1 488680655#2 307292431 994397868 4189987 666660155#0 666660155#2 305112618#0 666660152#1 666660152#3 333935384#2 668468055 785102259 489467557#0 489467557#1"/>
    </vehicle>
    <vehicle id="veh74" type="veh_passenger" depart="1330.91" departLane="best">
        <route edges="785102259 489467557#0 489467557#1 232866954#0 232866954#1 979435612 232866966#0 183079037#1 668485027#2 668485032 307292431 994397868"/>
    </vehicle>
    <vehicle id="veh76" type="veh_passenger" depart="1366.88" departLane="best">
        <route edges="785102259 489467557#0 489467557#1 232866954#0 232866954#1 138708547 4790252 61239094"/>
    </vehicle>
    <vehicle id="veh77" type="veh_passenger" depart="1384.86" departLane="best">
        <route edges="232866966#0 183079037#1 668485050#1 668485040 673118336#1 333934000"/>
    </vehicle>
    <vehicle id="veh78" type="veh_passenger" depart="1402.85" departLane="best">
        <route edges="572132657 673118337 307292432 666660156 4189988 49478489#0 49478489#1 838023770#1 232866966#3 75867438#0 75867438#1 785100395 668452809 571092944 572132660 668452813 668452812#0"/>
    </vehicle>
    <vehicle id="veh79" type="veh_passenger" depart="1420.83" departLane="best" departSpeed="max">
        <route edges="307690644#0 668453151#0 489692411#1 305112616#1"/>
    </vehicle>
    <vehicle id="veh80" type="veh_passenger" depart="1438.82" departLane="best">
        <route edges="4790247#0 4790247#1 488680655#0 488680655#1 488680655#2 307292431 994397868 4189987 666660155#0 666660155#2 305112618#0 666660152#1"/>
    </vehicle>
    <vehicle id="veh81" type="veh_passenger" depart="1456.80" departLane="best">
        <route edges="489692410 668452809 571092944 572132660 668452813 668452812#0 668452812#1 543219906#0 668485023#0 668485023#1 979435613"/>
    </vehicle>
    <vehicle id="veh83" type="veh_passenger" depart="1492.78" departLane="best">
        <route edges="333934001#1 668452814 668452809 571092944 572132660 668452813 668452812#0 668452812#1 543219906#0 668485023#0"/>
    </vehicle>
    <vehicle id="veh84" type="veh_passenger" depart="1510.76" departLane="best">
        <route edges="232866966#0 232866966#3 75867438#0 75867438#1 785100395 489467563 489692411#1"/>
    </vehicle>
    <vehicle id="veh85" type="veh_passenger" depart="1528.75" departLane="best">
        <route edges="232866966#0 232866966#3 75867438#0 75867438#1 785100395 489467563 489692411#1 305112616#1 305112616#3 333935385#1"/>
    </vehicle>
    <vehicle id="veh86" type="veh_passenger" depart="1546.73" departLane="best">
        <route edges="673118337 307292432 666660156 4189988 49478489#0 49478489#1 838023770#1 232866966#3 75867438#0 75867438#1 785100395"/>
    </vehicle>
    <vehicle id="veh88" type="veh_passenger" depart="1582.70" departLane="best">
        <route edges="668485032 307292431 994397868 4189987 666660155#0 666660155#2 305112618#0 666660152#1 666660152#3 333935384#2 668468055 785102259 489467557#0 489467557#1 232866954#0 232866954#1 979435612 232866966#0 183079037#1 668485050#1 668485040 673118336#1 333934000 333934001#1 668452814"/>
    </vehicle>
    <vehicle id="veh89" type="veh_passenger" depart="1600.69" departLane="best">
        <route edges="666660154#1 572132657 673118337 307292432 666660156 4189988 49478489#0 49478489#1 838023770#1 232866966#3 75867438#0 75867438#1 785100395 489467563 785102259 489467557#0 117617939#0 117617939#1"/>
    </vehicle>
    <vehicle id="veh91" type="veh_passenger" depart="1636.66" departLane="best">
        <route edges="666660154#1 572132657 673118337 307292432 666660156 4189988 49478489#0 49478489#1 979435613"/>
    </vehicle>
    <vehicle id="veh92" type="veh_passenger" depart="1654.64" departLane="best">
        <route edges="305112618#0 666660152#1 666660152#3 333935384#2 668468055 785102259 489467557#0 489467557#1 232866954#0 232866954#1 979435612 232866966#0 232866966#3 232866970"/>
    </vehicle>
    <vehicle id="veh93" type="veh_passenger" depart="1672.63" departLane="best">
        <route edges="305112616#1 305112616#3 333935385#1 666660153 666660154#1 572132657 673118337 307292432 666660156 4189988 49478489#0 49478489#1 838023770#1 232866966#3 232866970 232866954#0 232866954#1 138708547 4790252 61239094"/>
    </vehicle>
    <vehicle id="veh94" type="veh_passenger" depart="1690.61" departLane="best" departSpeed="max">
        <route edges="333933989#0 838023770#1 232866966#3 75867438#0 75867438#1 785100395 489467563 489692411#1 305112616#1 305112616#3 333935385#1 666660153"/>
    </vehicle>
    <vehicle id="veh95" type="veh_passenger" depart="1708.60" departLane="best">
        <route edges="668452812#0 668452812#1 543219906#0 668485023#0 668485023#1 668485027#2 668485032 307292431 994397868 4189987 666660155#0 666660155#2 305112618#0 666660152#1 666660152#3 333935384#2"/>
    </vehicle>
    <vehicle id="veh97" type="veh_passenger" depart="1744.57" departLane="best">
        <route edges="489467557#1 232866954#0 232866954#1 979435612 232866966#0 183079037#1 838023770#1"/>
    </vehicle>
    <vehicle id="veh98" type="veh_passenger" depart="1762.55" departLane="best">
        <route edges="117617939#0 117617939#1 75867438#1 785100395 668452809 571092944 572132660 668452813 668452812#0 668452812#1 543219906#0 668485023#0 668485023#1 668485027#2"/>
    </vehicle>
    <vehicle id="veh100" type="veh_passenger" depart="1798.52" departLane="best">
        <route edges="668452813 668452812#0 668452812#1 543219906#0 668485023#0 668485023#1 838023770#1 232866966#3 232866970 232866954#0 232866954#1 138708547 4790252 61239094"/>
    </vehicle>
    <vehicle id="veh101" type="veh_passenger" depart="1816.51" departLane="best">
        <route edges="232866966#0 232866966#3 75867438#0 75867438#1 785100395"/>
    </vehicle>
    <vehicle id="veh102" type="veh_passenger" depart="1834.49" departLane="best">
        <route edges="75867438#0 75867438#1 785100395 489467563 785102259 489467557#0 489467557#1 232866954#0 232866954#1 138708547 4790252 61239094"/>
    </vehicle>
    <vehicle id="veh103" type="veh_passenger" depart="1852.48" departLane="best">
        <route edges="668485032 307292431 994397868 4189987 666660155#0 666660155#2 305112618#0 666660152#1"/>
    </vehicle>
    <vehicle id="veh104" type="veh_passenger" depart="1870.47" departLane="best">
        <route edges="307292406 232866966#0 232866966#3 75867438#0 75867438#1 785100395 489467563 489692411#1 305112616#1 305112616#3"/>
    </vehicle>
    <vehicle id="veh105" type="veh_passenger" depart="1888.45" departLane="best">
        <route edges="333934000 333934001#1 668452814 489467563 785102259"/>
    </vehicle>
    <vehicle id="veh106" type="veh_passenger" depart="1906.44" departLane="best">
        <route edges="75867438#0 75867438#1 785100395 668452809 571092944 572132660 668452813 668452812#0 668452812#1 543219906#0 668485023#0 668485023#1 668485027#2 668485032 307292431 994397868 4189987 666660155#0 666660155#2 305112618#0 666660152#1 666660152#3 333935384#2"/>
    </vehicle>
    <vehicle id="veh107" type="veh_passenger" depart="1924.42" departLane="best" departSpeed="max">
        <route edges="307690644#0 668453151#0 785102259 489467557#0 489467557#1 232866954#0 232866954#1 979435612 232866966#0 232866966#3"/>
    </vehicle>
    <vehicle id="veh108" type="veh_passenger" depart="1942.41" departLane="best">
        <route edges="4749666 49478489#0 49478489#1 838023770#1 232866966#3 75867438#0 75867438#1 785100395 489467563 489692411#1 305112616#1 305112616#3 333935385#1 666660153 666660154#1"/>
    </vehicle>
    <vehicle id="veh109" type="veh_passenger" depart="1960.39" departLane="best">
        <route edges="307292406 232866966#0 183079037#1 979435613"/>
    </vehicle>
    <vehicle id="veh111" type="veh_passenger" depart="1996.36" departLane="best">
        <route edges="668485023#1 838023770#1 232866966#3 75867438#0 75867438#1 785100395"/>
    </vehicle>
    <vehicle id="veh113" type="veh_passenger" depart="2032.33" departLane="best">
        <route edges="333935384#2 668468055 785102259 489467557#0 489467557#1 232866954#0 232866954#1 979435612 232866966#0 183079037#1 979435613"/>
    </vehicle>
    <vehicle id="veh114" type="veh_passenger" depart="2050.32" departLane="best">
        <route edges="668485023#0 668485023#1 838023770#1 232866966#3 75867438#0 75867438#1"/>
    </vehicle>
    <vehicle id="veh116" type="veh_passenger" depart="2086.29" departLane="best">
        <route edges="668468055 785102259 489467557#0 489467557#1 232866954#0 232866954#1 979435612 232866966#0 232866966#3"/>
    </vehicle>
    <vehicle id="veh117" type="veh_passenger" depart="2104.27" departLane="best">
        <route edges="673118336#1 333934000 333934001#1 668452814 489467563 785102259 489467557#0 117617939#0 117617939#1 75867438#1"/>
    </vehicle>
    <vehicle id="veh118" type="veh_passenger" depart="2122.26" departLane="best" departSpeed="max">
        <route edges="307690644#0 668453151#0 785102259 489467557#0 489467557#1 232866954#0 232866954#1 979435612 232866966#0 183079037#1 668485050#1 668485040 673118336#1"/>
    </vehicle>
    <vehicle id="veh119" type="veh_passenger" depart="2140.24" departLane="best">
        <route edges="488680655#2 307292431 994397868 4189987 666660155#0 666660155#2 305112618#0 666660152#1 666660152#3 333935384#2 668468055 489692410 489467547#1"/>
    </vehicle>
    <vehicle id="veh120" type="veh_passenger" depart="2158.23" departLane="best">
        <route edges="668468055 785102259 489467557#0 489467557#1 232866954#0 232866954#1 979435612 232866966#0 183079037#1 668485027#2 668485032 307292431 994397868 4189987"/>
    </vehicle>
    <vehicle id="veh123" type="veh_passenger" depart="2212.19" departLane="best">
        <route edges="666660153 666660154#1 572132657 673118337 307292432 666660156 4189988 49478489#0 49478489#1 838023770#1 232866966#3 75867438#0 75867438#1 785100395 489467563 785102259 489467557#0"/>
    </vehicle>
    <vehicle id="veh124" type="veh_passenger" depart="2230.17" departLane="best">
        <route edges="838023770#1 232866966#3 75867438#0 75867438#1 785100395 489467563 489692411#1 305112616#1 305112616#3 333935385#1 666660153 666660154#1 572132657 673118337 307292432"/>
    </vehicle>
    <vehicle id="veh126" type="veh_passenger" depart="2266.14" departLane="best">
        <route edges="668452812#1 543219906#0 668485023#0 668485023#1 838023770#1 232866966#3 75867438#0 75867438#1 785100395 489467547#1"/>
    </vehicle>
    <vehicle id="veh127" type="veh_passenger" depart="2284.13" departLane="best">
        <route edges="572132660 668452813 668452812#0 668452812#1 543219906#0 668485023#0 668485023#1 838023770#1 232866966#3 75867438#0 75867438#1 785100395 489467563 489692411#1 305112616#1 305112616#3 333935385#1 666660153 666660154#1 572132657"/>
    </vehicle>
    <vehicle id="veh128" type="veh_passenger" depart="2302.11" departLane="best" departSpeed="max">
        <route edges="333933989#0 668485050#1 668485040 673118336#1 333934000 333934001#1 668452814"/>
    </vehicle>
    <vehicle id="veh129" type="veh_passenger" depart="2320.10" departLane="best">
        <route edges="117617939#0 117617939#1 75867438#1 785100395 668452809 571092944 572132660 668452813 668452812#0 668452812#1 543219906#0 668485023#0 668485023#1 979435613"/>
    </vehicle>
    <vehicle id="veh131" type="veh_passenger" depart="2356.07" departLane="best">
        <route edges="4189988 49478489#0 49478489#1 838023770#1 232866966#3 232866970 232866954#0"/>
    </vehicle>
    <vehicle id="veh132" type="veh_passenger" depart="2374.05" departLane="best">
        <route edges="666660154#1 572132657 673118337 307292432 666660156 4189988 49478489#0 49478489#1 838023770#1 232866966#3 75867438#0 75867438#1 785100395 489467547#1"/>
    </vehicle>
    <vehicle id="veh133" type="veh_passenger" depart="2392.04" departLane="best">
        <route edges="333934000 333934001#1 668452814 489467563 785102259 489467557#0 489467557#1 232866954#0 232866954#1 979435612 232866966#0 232866966#3 75867438#0"/>
    </vehicle>
    <vehicle id="veh135" type="veh_passenger" depart="2428.01" departLane="best">
        <route edges="333934000 333934001#1 668452814 489467563 785102259 489467557#0"/>
    </vehicle>
    <vehicle id="veh136" type="veh_passenger" depart="2445.99" departLane="best">
        <route edges="305112618#0 666660152#1 666660152#3 333935384#2 668468055 785102259 489467557#0 489467557#1"/>
    </vehicle>
    <vehicle id="veh137" type="veh_passenger" depart="2463.98" departLane="best">
        <route edges="75867438#0 75867438#1 785100395 489467563 489692411#1 305112616#1 305112616#3 333935385#1 666660153 666660154#1"/>
    </vehicle>
    <vehicle id="veh138" type="veh_passenger" depart="2481.96" departLane="best" departSpeed="max">
        <route edges="333933989#0 838023770#1 232866966#3 232866970 232866954#0 232866954#1 138708547 4790252 61239094"/>
    </vehicle>
    <vehicle id="veh139" type="veh_passenger" depart="2499.95" departLane="best">
        <route edges="117617939#0 117617939#1 75867438#1 785100395 489467563 785102259 489467557#0 489467557#1 232866954#0 232866954#1 138708547 4790252"/>
    </vehicle>
    <vehicle id="veh140" type="veh_passenger" depart="2517.93" departLane="best">
        <route edges="4790247#1 488680655#0 488680655#1 488680655#2 307292431 994397868 4189987 666660155#0 666660155#2 305112618#0 666660152#1"/>
    </vehicle>
    <vehicle id="veh141" type="veh_passenger" depart="2535.92" departLane="best">
        <route edges="666660154#1 572132657 673118337 307292432 666660156 4189988 49478489#0"/>
    </vehicle>
    <vehicle id="veh143" type="veh_passenger" depart="2571.89" departLane="best">
        <route edges="668468055 785102259 489467557#0 489467557#1 232866954#0 232866954#1 979435612 232866966#0 183079037#1 668485027#2 668485032 307292431"/>
    </vehicle>
    <vehicle id="veh144" type="veh_passenger" depart="2589.88" departLane="best">
        <route edges="232866966#3 75867438#0 75867438#1 785100395 489467563 489692411#1 305112616#1 305112616#3 333935385#1 666660153 666660154#1 572132657"/>
    </vehicle>
    <vehicle id="veh145" type="veh_passenger" depart="2607.86" departLane="best">
        <route edges="666660152#3 333935384#2 668468055 489692410 489467547#1"/>
    </vehicle>
    <vehicle id="veh147" type="veh_passenger" depart="2643.83" departLane="best" departSpeed="max">
        <route edges="307690644#0 668453151#0 489692411#1 305112616#1 305112616#3 333935385#1 666660153 666660154#1 572132657 673118337 307292432 666660156 4189988 49478489#0 49478489#1"/>
    </vehicle>
    <vehicle id="veh148" type="veh_passenger" depart="2661.82" departLane="best">
        <route edges="668485040 673118336#1 333934000 333934001#1 668452814 489467563 785102259 489467557#0 489467557#1 232866954#0 232866954#1"/>
    </vehicle>
    <vehicle id="veh149" type="veh_passenger" depart="2679.80" departLane="best">
        <route edges="4790247#0 4790247#1 488680655#0 488680655#1 488680655#2 307292431 994397868 4189987 666660155#0"/>
    </vehicle>
    <vehicle id="veh150" type="veh_passenger" depart="2697.79" departLane="best" departSpeed="max">
        <route edges="307690644#0 668453151#0 489692410 668452809 571092944 572132660 668452813"/>
    </vehicle>
    <vehicle id="veh152" type="veh_passenger" depart="2733.76" departLane="best">
        <route edges="666660154#1 572132657 673118337 307292432 666660156 4189988 49478489#0 49478489#1 838023770#1 232866966#3 75867438#0 75867438#1 785100395 489467563 785102259 489467557#0 117617939#0 117617939#1"/>
    </vehicle>
    <vehicle id="veh153" type="veh_passenger" depart="2751.74" departLane="best">
        <route edges="668452814 668452809 571092944 572132660 668452813 668452812#0 668452812#1 543219906#0 668485023#0 668485023#1 668485027#2"/>
    </vehicle>
    <vehicle id="veh155" type="veh_passenger" depart="2787.71" departLane="best">