<?xml version="1.0" encoding="UTF-8"?>

<!-- generated on 2022-07-15 12:15:21.245856 by randomTrips.py UNKNOWN
<configuration>
    <additional-files value="osm_stops.add.xml,osm_pt.rou.xml"/>
    <end value="3600"/>
    <net-file value="osm.net.xml"/>
    <period value="10.900546"/>
    <persontrips value="True"/>
    <route-file value="osm.pedestrian.rou.xml"/>
    <trip-attributes value="modes=&quot;public&quot;"/>
    <output-trip-file value="osm.pedestrian.trips.xml"/>
    <prefix value="ped"/>
    <vehicle-class value="pedestrian"/>
    <persontrip.walk-opposite-factor value="0.8"/>
</configuration>
-->

<!-- generated on 2022-07-15 12:15:21 by Eclipse SUMO duarouter Version 1.14.0
<configuration xmlns:xsi="http://www.w3.org/2001/XMLSchema-instance" xsi:noNamespaceSchemaLocation="http://sumo.dlr.de/xsd/duarouterConfiguration.xsd">

    <input>
        <net-file value="osm.net.xml"/>
        <additional-files value="osm_stops.add.xml,osm_pt.rou.xml"/>
        <route-files value="osm.pedestrian.trips.xml"/>
    </input>

    <output>
        <output-file value="osm.pedestrian.rou.xml"/>
        <alternatives-output value="NUL"/>
    </output>

    <processing>
        <persontrip.walk-opposite-factor value="0.8"/>
    </processing>

    <time>
        <begin value="0"/>
        <end value="3600"/>
    </time>

    <report>
        <no-warnings value="true"/>
        <ignore-errors value="true"/>
        <no-step-log value="true"/>
    </report>

</configuration>
-->

<routes xmlns:xsi="http://www.w3.org/2001/XMLSchema-instance" xsi:noNamespaceSchemaLocation="http://sumo.dlr.de/xsd/routes_file.xsd">
    <vType id="ped_pedestrian" vClass="pedestrian"/>
    <person id="ped0" type="ped_pedestrian" depart="0.00">
        <walk edges="657446604 701455101#2 652807105 474953696#0 474953695#2 474953695#3 -700995751#1 -700995751#0 -232866961#3 -232866961#2 -232866961#1 -232866961#0"/>
    </person>
    <person id="ped2" type="ped_pedestrian" depart="21.80">
        <walk edges="693124517#0 -775633664#4 -775633664#3 -775633664#2 -673253658 -673071136#1 -673071136#0 673071136#0"/>
    </person>
    <person id="ped3" type="ped_pedestrian" depart="32.70">
        <walk edges="775633683#1 -775633683#0 777424817#2 777424817#3 777424817#4 777424817#5 474953693#2 474953693#3 474953693#4 232866961#8 232866961#9 -701275527#0 -232152854#3 432521766#1 432521766#2 432521766#3 432521766#4 -432521766#4"/>
    </person>
    <person id="ped4" type="ped_pedestrian" depart="43.60">
        <walk edges="-775633688#3 -775633688#2 -775633688#1 -775633688#0 673071134#3 673071134#4 -768639719 -768639727#0 474953693#2 474953693#3 474953693#4 -232866961#7 -232866961#6 -232866961#4 -232866961#3"/>
    </person>
    <person id="ped5" type="ped_pedestrian" depart="54.50">
        <walk edges="-673255156 673063373#2 673071139#1 -775633688#2 777424817#3 775633681#0 -775633682#1 775633678#1 775633678#2 775633678#3 232850423#5"/>
    </person>
    <person id="ped6" type="ped_pedestrian" depart="65.40">
        <walk edges="-232866961#1 232866961#2 232866961#3 232866961#4 232866961#6 232866961#7 -474953693#4 -474953693#3 -474953693#2 768639723 768639719 -673071134#4 -673071134#3 -673071134#2 -673071134#1 673076840#1 -673076840#1"/>
    </person>
    <person id="ped7" type="ped_pedestrian" depart="76.30">
        <walk edges="673063373#2 -673257741#4 673071140#1 775633688#4" busStop="5188280103"/> <!-- London Circuit opposite City Police Station -->
        <walk edges="232849569#0 -335727782 335727782"/>
    </person>
    <person id="ped8" type="ped_pedestrian" depart="87.20">
        <walk edges="-673257108 673063373#2 -673076840#5 -673076840#4 781757770 781757769#2 781757781#1 -781757773#3 -781757773#2 673071134#2 673071134#3 673071134#4 -768639719 -768639727#0 474953693#2 474953693#3 474953693#4 -785102259 341460011#3 944879878#2 444565299#2"/>
    </person>
    <person id="ped9" type="ped_pedestrian" depart="98.10">
        <walk edges="713194426#0 713194425 -232152854#3"/>
    </person>
    <person id="ped10" type="ped_pedestrian" depart="109.01">
        <walk edges="713194424#0 -701455095#1 -713194426#2 -775633692 -775633691#0 -474953695#3 -474953695#2 -474953695#1 -474953695#0 -768639722 -474953693#4 -474953693#3 -474953693#2 768639723 768639719 -673071134#4 -673071134#3 -673071134#2 -673071134#1 673076840#1"/>
    </person>
    <person id="ped11" type="ped_pedestrian" depart="119.91">
        <walk edges="-768639727#0 768639719 -673071134#4 -673071134#3 -673071134#2 781757773#2 781757773#3 781757781#1 781757769#2 781757770 673076840#4 673076840#5 -673071139#0 673255156 -673063374#1"/>
    </person>
    <person id="ped12" type="ped_pedestrian" depart="130.81">
        <walk edges="781757781#1 -781757773#3 -781757773#2 673071134#2 673071134#3 673071134#4 -768639719"/>
    </person>
    <person id="ped13" type="ped_pedestrian" depart="141.71">
        <walk edges="-444565298#0 444565298#1 -785102259 341460011#3 944879878#2 -444565299#0"/>
    </person>
    <person id="ped14" type="ped_pedestrian" depart="152.61">
        <walk edges="775633668#0 232866961#7 474953693#4"/>
    </person>
    <person id="ped16" type="ped_pedestrian" depart="174.41">
        <walk edges="232866961#9 -232866961#8 -474953693#4 -474953693#3 -474953693#2 944879877#2"/>
    </person>
    <person id="ped17" type="ped_pedestrian" depart="185.31">
        <walk edges="-775633678#3 232850423#5 775633665#1 474953693#2 474953693#3 474953693#4 232866961#8 -341460011#1 -341460011#0 341460011#0"/>
    </person>
    <person id="ped18" type="ped_pedestrian" depart="196.21">
        <walk edges="768639727#1 -768639727#0 474953693#2 474953693#3 474953693#4 474953693#6 474953695#0 474953695#1 474953696#0"/>
    </person>
    <person id="ped19" type="ped_pedestrian" depart="207.11">
        <walk edges="775633678#2 -232866956#0 775633665#1 474953693#2 474953693#3 474953693#4 232866961#8 232866961#9 -701275527#0 -232152854#3 432521766#1 432521766#2 432521766#3"/>
    </person>
    <person id="ped21" type="ped_pedestrian" depart="228.91">
        <walk edges="-673257112 653131059#1 -673257110 673257741#2 -673076840#5 -673076840#4 781757770 781757769#2 781757781#1 -781757773#3 -781757773#2 673071134#2 673071134#3 673071134#4 -768639719 -768639727#0 474953693#2 474953693#3 474953693#4 474953693#6 474953695#0 474953695#1 474953696#0 474953696#1 -701455101#1"/>
    </person>
    <person id="ped22" type="ped_pedestrian" depart="239.81">
        <walk edges="-432521766#0 232152854#3 701275527#0 -232866961#9 -232866961#8 -474953693#4 -474953693#3 -474953693#2 768639723 768639719 -673071134#4 -673071134#3 -673071134#2 781757773#2 781757773#3 781757781#1 781757769#2 781757770 673076840#4 673076840#5 -673257741#4 -673257741#1"/>
    </person>
    <person id="ped24" type="ped_pedestrian" depart="261.61">
        <walk edges="653131059#0 653131059#1 -673257110 673257741#2 -673076840#5 -673076840#4 781757770 781757769#2 781757781#1 -781757773#3 -781757773#2 673071134#2 673071134#3 673071134#4 -768639719 -768639727#0 474953693#2 474953693#3 474953693#4 -232866961#7 775633668#0 775633668#1 -775633668#1"/>
    </person>
    <person id="ped25" type="ped_pedestrian" depart="272.51">
        <walk edges="-775633670 -775633668#0 232866961#7 -474953693#4 -474953693#3 -474953693#2 768639723 768639719 -673071134#4 -673071134#3 -673071134#2 781757773#2 -673076844"/>
    </person>
    <person id="ped26" type="ped_pedestrian" depart="283.41">
        <walk edges="-700995753#3 700995754 232866961#3 232866961#4 232866961#6 232866961#7 -474953693#4 -474953693#3 -474953693#2 768639723 768639719 -673071134#4 -673071134#3 -673071134#2 781757773#2 781757773#3 781757781#1 781757769#2 781757769#1"/>
    </person>
    <person id="ped27" type="ped_pedestrian" depart="294.31">
        <walk edges="673063373#1 673063373#2 -673076840#5 -673076840#4 781757770 781757769#2 781757781#1 -781757773#3 -781757773#2 673071134#2 673071134#3 673071134#4 -768639719 -768639727#0 474953693#2 474953693#3 474953693#4 474953693#6 474953695#0"/>
    </person>
    <person id="ped29" type="ped_pedestrian" depart="316.12">
        <walk edges="-673071134#0 673076840#1 673076840#2 859982141 781757781#1 781757781#2 781757781#3 775633688#1 777424817#3 775633681#0 -775633682#1 775633678#1 775633678#2 775633678#3 -775633678#3"/>
    </person>
    <person id="ped31" type="ped_pedestrian" depart="337.92">
        <walk edges="341460011#3 -785102259 -474953693#4 -474953693#3 -474953693#2 768639723 768639719 -673071134#4 -673071134#3 -673071134#2 781757773#2 781757773#3 781757781#1 781757769#2 781757770 673076840#4 673076840#5 -673257741#4 -673257741#1 673071137#1 673071138"/>
    </person>
    <person id="ped32" type="ped_pedestrian" depart="348.82">
        <walk edges="775633664#9 -775633664#8 939129750 232850423#4 232850423#5 775633665#1 474953693#2 474953693#3 474953693#4 474953693#6 474953695#0 474953695#1 474953696#0 652807105 701455101#2"/>
    </person>
    <person id="ped33" type="ped_pedestrian" depart="359.72">
        <walk edges="-673257112 653131059#1 -673257110 673257741#2 -673076840#5 -673076840#4 781757770 781757769#2 781757781#1 -781757773#3 -781757773#2 673071134#2 673071134#3 673071134#4 -768639719 -768639727#0 474953693#2 474953693#3 474953693#4 -232866961#7 -232866961#6 -232866961#4"/>
    </person>
    <person id="ped34" type="ped_pedestrian" depart="370.62">
        <walk edges="-713194424#1 -672435861#0 232866961#0 232866961#1 232866961#2 -700995754 700995753#3 -700995753#3"/>
    </person>
    <person id="ped36" type="ped_pedestrian" depart="392.42">
        <walk edges="775633682#0 775633678#1 775633678#2 -232866956#0 775633665#1 474953693#2 474953693#3 474953693#4 474953693#6 474953695#0 474953695#1 474953695#2 474953695#3 474953695#4 775633691#1 -713194424#1"/>
    </person>
    <person id="ped37" type="ped_pedestrian" depart="403.32">
        <walk edges="673063374#1 -673255156 673063373#2 673071139#1 -775633688#2 -777424817#2 775633683#0 775633683#1 -775633682#2"/>
    </person>
    <person id="ped38" type="ped_pedestrian" depart="414.22">
        <walk edges="777424812 -775633664#3 -775633664#2 -673253658 -775633688#4 -775633688#3 -775633688#2 -775633688#1 781757781#3 781757781#2 -781757773#3 -781757773#2 -781757773#1 -781757774#0"/>
    </person>
    <person id="ped39" type="ped_pedestrian" depart="425.12">
        <walk edges="-700995753#2 700995754 232866961#3 232866961#4 232866961#6 232866961#7 -474953693#4 -474953693#3 -474953693#2 -775633666 -775633665#0 -232850423#4 939129750 -678154033#1"/>
    </person>
    <person id="ped41" type="ped_pedestrian" depart="446.92">
        <walk edges="444565298#1 -474953693#4 -474953693#3 -474953693#2 -777424817#5 -777424817#4 -777424817#3 -777424817#2 -777424817#1 -775633682#6 775633684#2"/>
    </person>
    <person id="ped42" type="ped_pedestrian" depart="457.82">
        <walk edges="-775633682#5 232848622#1 777424817#1" busStop="5188280103"/> <!-- London Circuit opposite City Police Station -->
        <walk edges="775633688#4 -673071140#1 -673071140#0 673257108 673255156 -673255156"/>
    </person>
    <person id="ped44" type="ped_pedestrian" depart="479.62">
        <walk edges="-444565298#0 444565298#1 -668453151#0 -307690644#1"/>
    </person>
    <person id="ped45" type="ped_pedestrian" depart="490.52">
        <walk edges="-474953693#2 489467547#1"/>
    </person>
    <person id="ped46" type="ped_pedestrian" depart="501.43">
        <walk edges="702966193#1 702966193#0 -775633691#0 -474953695#3 -474953695#2 -474953695#1 -474953695#0 -768639722 -474953693#4 -474953693#3 -474953693#2 -777424817#5 -777424817#4 -777424817#3 775633688#2 775633688#3 775633688#4 -775633688#4"/>
    </person>
    <person id="ped48" type="ped_pedestrian" depart="523.23">
        <walk edges="944883177#2 -432521766#2 -432521766#1 232152854#3 -713194425 713194426#0 -672435861#0 232866961#0 232866961#1 232866961#2 232866961#3 232866961#4"/>
    </person>
    <person id="ped49" type="ped_pedestrian" depart="534.13">
        <walk edges="944879877#1 -474953693#3 -474953693#2 -775633666 232866956#0 -775633678#2 775633678#2"/>
    </person>
    <person id="ped50" type="ped_pedestrian" depart="545.03">
        <walk edges="-232850423#1 232850423#3 939129750 -775633664#4 -775633664#3 -775633664#2 -673253658 -673071136#1 673257741#0 673257741#1 -673071140#0 -653131059#1 673257112"/>
    </person>
    <person id="ped51" type="ped_pedestrian" depart="555.93">
        <walk edges="673071137#1 673257741#1 673257741#2 -673076840#5 -673076840#4 781757770 781757769#2 781757781#1 -781757773#3 -781757773#2 673071134#2 673071134#3 673071134#4 -768639719 -768639727#0 474953693#2 474953693#3 474953693#4 232866961#8 232866961#9"/>
    </person>
    <person id="ped52" type="ped_pedestrian" depart="566.83">
        <walk edges="-700995753#3 700995754 232866961#3 700995751#0 700995751#1 -474953695#3 -474953695#2 474953696#0 652807105 -701455101#2 -657446604 657446604"/>
    </person>
    <person id="ped53" type="ped_pedestrian" depart="577.73">
        <walk edges="-474953693#3 -474953693#2 -777424817#5 -777424817#4 -777424817#3 -777424817#2 -777424817#1"/>
    </person>
    <person id="ped54" type="ped_pedestrian" depart="588.63">
        <walk edges="-781757773#2 -781757773#1 781757774#1"/>
    </person>
    <person id="ped55" type="ped_pedestrian" depart="599.53">
        <walk edges="775633682#0 775633678#1 775633678#2 -232866956#0 775633665#1 474953693#2 474953693#3 474953693#4 -232866961#7 -232866961#6 -232866961#4 -232866961#3 -232866961#2 -700995750#1 -700995753#1"/>
    </person>
    <person id="ped56" type="ped_pedestrian" depart="610.43">
        <walk edges="232850423#3 939129750 -775633664#4 -775633664#3 -775633664#2 -673253658 -673071136#1 673257741#0 -673071137#0"/>
    </person>
    <person id="ped57" type="ped_pedestrian" depart="621.33">
        <walk edges="775633691#1 -775633691#0 -474953695#3 -474953695#2 -474953695#1 -474953695#0 -768639722 -474953693#4 -474953693#3 -474953693#2 -775633666 232866956#0 -775633678#2 775633679#0 775633679#1 775633679#2"/>
    </person>
    <person id="ped58" type="ped_pedestrian" depart="632.23">
        <walk edges="-701455101#5 -701455101#4 -701455101#3 652807105 474953696#0 -474953695#1 -474953695#0 -768639722 -474953693#4 -474953693#3 -474953693#2 768639723 768639719 -673071134#4 -673071134#3 -673071134#2 781757773#2 781757773#3 781757781#1 781757769#2 781757770 673076840#4 673076840#5 -673257741#4 -673071140#0 653131059#1"/>
    </person>
    <person id="ped59" type="ped_pedestrian" depart="643.13">
        <walk edges="474953695#0 -768639722 -474953693#4 -474953693#3 -474953693#2 768639723 768639719 -673071134#4 -673071134#3 -673071134#2 781757773#2 781757773#3 781757781#1 781757769#2 781757770 673076840#4 673076840#5 -673071139#0 673255156 -673063374#1 -673063374#0"/>
    </person>
    <person id="ped60" type="ped_pedestrian" depart="654.03">
        <walk edges="701275528 701275527#0 -232866961#9 -232866961#8 -474953693#4 -474953693#3 -474953693#2 -775633666 232866956#0 -775633678#2 775633679#0 775633679#1 232866967"/>
    </person>
    <person id="ped61" type="ped_pedestrian" depart="664.93">
        <walk edges="701455101#4 702966193#1 702966193#0 -775633691#0 -700995751#1 -700995751#0 232866961#4 232866961#6"/>
    </person>
    <person id="ped62" type="ped_pedestrian" depart="675.83">
        <walk edges="-1009372632 232152854#1 232152854#3 -713194425 -713194427"/>
    </person>
    <person id="ped63" type="ped_pedestrian" depart="686.73">
        <walk edges="-232866956#0 -775633678#2 -775633678#1 775633682#1 -775633681#0 -777424817#3 775633688#2 775633688#3 775633688#4 775633688#5 775633664#0 -777424825#1 -777424825#0 777424825#0"/>
    </person>
    <person id="ped64" type="ped_pedestrian" depart="697.63">
        <walk edges="775633682#1 -775633681#0 -777424817#3 775633688#2 775633688#3 775633688#4 775633688#5 775633664#0 775633664#3 775633664#4 775633664#8 775633663"/>
    </person>
    <person id="ped65" type="ped_pedestrian" depart="708.54">
        <walk edges="-707537512#0 707537512#1 707537512#2 232866961#6 232866961#7 232866961#8 -341460011#1"/>
    </person>
    <person id="ped66" type="ped_pedestrian" depart="719.44">
        <walk edges="775633682#1 -775633681#0 -777424817#3 -775633688#1 781757781#3 781757781#2 -781757773#3 -781757773#2 781757773#1"/>
    </person>
    <person id="ped67" type="ped_pedestrian" depart="730.34">
        <walk edges="-432521766#3 -432521766#2 -432521766#1 232152854#3 701275527#0 -232866961#9 -232866961#8 -474953693#4 -474953693#3 -474953693#2 -777424817#5 -777424817#4 -777424817#3 -777424817#2 -777424817#1 -775633682#6 232848622#2"/>
    </person>
    <person id="ped71" type="ped_pedestrian" depart="773.94">
        <walk edges="-700995753#2 700995754 232866961#3 232866961#4 232866961#6 232866961#7 -474953693#4 -474953693#3 -474953693#2 -777424817#5 -777424817#4 775633681#0"/>
    </person>
    <person id="ped74" type="ped_pedestrian" depart="806.64">
        <walk edges="-673076840#2 -673076840#1 673071134#1 673071134#2 673071134#3 673071134#4 -768639719 -768639727#0 474953693#2 474953693#3 474953693#4 -232866961#7 -232866961#6 -707537512#2"/>
    </person>
    <person id="ped75" type="ped_pedestrian" depart="817.54">
        <walk edges="944883177#1 -432521766#1 232152854#3 701275527#0 -232866961#9 -232866961#8 -474953693#4 -474953693#3 -474953693#2 768639723 768639719 -673071134#4 -673071134#3 -673071134#2 781757773#2 781757773#3 781757781#1 781757769#2 781757770 673076840#4 673076840#5 673063373#2"/>
    </person>
    <person id="ped76" type="ped_pedestrian" depart="828.44">
        <walk edges="-777424817#2 777424817#3 777424817#4 777424817#5 474953693#2 474953693#3 474953693#4 -232866961#7 -232866961#6 -232866961#4 -232866961#3 -232866961#2 -232866961#1 -232866961#0 232866961#0"/>
    </person>
    <person id="ped77" type="ped_pedestrian" depart="839.34">
        <walk edges="-474953695#3 -474953695#2 -474953695#1 -474953695#0 -768639722 -474953693#4 -474953693#3 -474953693#2 768639723 768639719 -673071134#4 -673071134#3 -673071134#2 781757773#2 781757773#3 781757781#1 781757769#2 781757770 673076840#4 673076840#5 -673257741#4 -673071140#0 673257109#0 673257109#1 -673257109#1"/>
    </person>
    <person id="ped78" type="ped_pedestrian" depart="850.24">
        <walk edges="-768639722 -785102259 341460011#3 944879878#2 -444565299#0 444565299#0"/>
    </person>
    <person id="ped79" type="ped_pedestrian" depart="861.14">
        <walk edges="-673257741#0 673257741#1 -673071140#0 -673257108"/>
    </person>
    <person id="ped80" type="ped_pedestrian" depart="872.04">
        <walk edges="-344157304#0 344157304#1 939129751 -775633664#4 -775633664#3 -775633664#2 -673253658 -673071136#1 673257741#0 673257741#1 -673071140#0 -653131059#1 -673257112 545142128#1"/>
    </person>
    <person id="ped81" type="ped_pedestrian" depart="882.94">
        <walk edges="-673257112 653131059#1 -673257110 673071140#1 775633688#4"/>
    </person>
    <person id="ped82" type="ped_pedestrian" depart="893.84">
        <walk edges="775633678#1 775633678#2 775633678#3 -232850423#4 -232850423#3 -232850423#1 -232850423#0 -344157304#0"/>
    </person>
    <person id="ped84" type="ped_pedestrian" depart="915.65">
        <walk edges="-673253658 -775633688#4 -775633688#3 -775633688#2 -775633688#1 -775633688#0 673071134#3 673071134#4 -768639719 -768639727#0 474953693#2 474953693#3 474953693#4 -785102259 -489467557#0 -489467557#1"/>
    </person>
    <person id="ped85" type="ped_pedestrian" depart="926.55">
        <walk edges="781757769#1 781757769#2 781757781#1 -781757773#3 -781757773#2 673071134#2 673071134#3 673071134#4 -768639719 -768639727#0 474953693#2 474953693#3 474953693#4 -232866961#7 -232866961#6 -232866961#4 -232866961#3 -232866961#2 -232866961#1 -700995755 -700995753#0 350991780#1"/>
    </person>
    <person id="ped87" type="ped_pedestrian" depart="948.35">
        <walk edges="713194425 713194426#0 -672435861#0 232866961#0 232866961#1 232866961#2 232866961#3 232866961#4 232866961#6 232866961#7 -474953693#4 -474953693#3 -474953693#2 -777424817#5 -777424817#4 -777424817#3 775633688#2 775633688#3 -673071140#1"/>
    </person>
    <person id="ped88" type="ped_pedestrian" depart="959.25">
        <walk edges="-444565299#0 944879878#2 -341460011#3 -785102259 -474953693#4 -474953693#3 -474953693#2 -775633666 -775633665#0 -232850423#4 939129750 -775633664#4 -777424812"/>
    </person>
    <person id="ped89" type="ped_pedestrian" depart="970.15">
        <walk edges="-775633688#4 775633688#5 775633664#0 775633664#3 775633664#4 -678154033#1 -678154033#0 -232152854#3 -232152854#1 347384262 210337581#0"/>
    </person>
    <person id="ped91" type="ped_pedestrian" depart="991.95">
        <walk edges="944880507 341460011#1 -232866961#8 -785102259 341460011#3 944879878#2 444565299#2 -444565299#2"/>
    </person>
    <person id="ped92" type="ped_pedestrian" depart="1002.85">
        <walk edges="-775633682#6 777424817#1 777424817#2 777424817#3 777424817#4 777424817#5 474953693#2 474953693#3 474953693#4 474953693#6 -768639722"/>
    </person>
    <person id="ped93" type="ped_pedestrian" depart="1013.75">
        <walk edges="775633678#2 -775633678#1 775633682#1 -775633681#0 -777424817#3 775633688#2 -673071139#1 -673257741#4 -673257741#1 673071137#1 681033853 -681033853"/>
    </person>
    <person id="ped94" type="ped_pedestrian" depart="1024.65">
        <walk edges="-673071140#1 775633688#4 775633688#5 775633664#0 -777424825#1"/>
    </person>
    <person id="ped96" type="ped_pedestrian" depart="1046.45">
        <walk edges="-693124517#0 -775633664#4 -775633664#3 -775633664#2 -673253658 -775633688#4 -775633688#3 -775633688#2 777424817#3"/>
    </person>
    <person id="ped97" type="ped_pedestrian" depart="1057.35">
        <walk edges="-777424817#5 -775633666 232866956#0 -775633678#2 775633678#2"/>
    </person>
    <person id="ped98" type="ped_pedestrian" depart="1068.25">
        <walk edges="341460010#1 -432521766#3 -432521766#2 -432521766#1 232152854#3 701275527#0 -232866961#9 -232866961#8 -474953693#4 -474953693#3 -474953693#2 -777424817#5 -777424817#4 -777424817#3 775633688#2 775633688#3 775633688#4" busStop="5188280103"/> <!-- London Circuit opposite City Police Station -->
        <walk edges="232849569#0 -335727782"/>
    </person>
    <person id="ped99" type="ped_pedestrian" depart="1079.15">
        <walk edges="992711567 -701275527#0 701275528 678154033#1 -775633664#4 -775633664#3 775633664#3"/>
    </person>
    <person id="ped100" type="ped_pedestrian" depart="1090.05">
        <walk edges="939129752 -775633664#4 -775633664#3 -775633664#2 -673253658 -775633688#4 -775633688#3 -775633688#2 777424817#3 777424817#4 777424817#5"/>
    </person>
    <person id="ped101" type="ped_pedestrian" depart="1100.96">
        <walk edges="775633668#1 -775633668#0 232866961#7 -474953693#4 -474953693#3 -474953693#2 768639723 768639719 -673071134#4 -673071134#3 -673071134#2 -673071134#1"/>
    </person>
    <person id="ped102" type="ped_pedestrian" depart="1111.86">
        <walk edges="232848622#2 232848622#1 777424817#1" busStop="5188280103"/> <!-- London Circuit opposite City Police Station -->
        <walk edges="775633688#4 775633688#5 -673253658"/>
    </person>
    <person id="ped103" type="ped_pedestrian" depart="1122.76">
        <walk edges="-775633682#6 777424817#1 777424817#2 777424817#3 777424817#4 777424817#5 474953693#2 474953693#3 474953693#4 232866961#8 -341460011#1"/>
    </person>
    <person id="ped105" type="ped_pedestrian" depart="1144.56">
        <walk edges="-700995753#2 700995754 232866961#3 700995751#0 700995751#1 474953695#4 702966193#0 702966194 701455101#6"/>
    </person>
    <person id="ped106" type="ped_pedestrian" depart="1155.46">
        <walk edges="-781757773#2 781757773#3 781757781#2 781757781#3 775633688#1 775633688#2 775633688#3 775633688#4 -775633688#4"/>
    </person>
    <person id="ped107" type="ped_pedestrian" depart="1166.36">
        <walk edges="781757781#1 -781757773#3 -781757773#2 673071134#2 673071134#3 673071134#4 -768639719 -768639727#0 474953693#2 474953693#3 474953693#4 232866961#8 232866961#9 -701275527#0 -232152854#3 432521766#1 944883177#1"/>
    </person>
    <person id="ped108" type="ped_pedestrian" depart="1177.26">
        <walk edges="341460011#3 -785102259 -474953693#4 -474953693#3 -474953693#2 768639723 768639719 -673071134#4 -673071134#3 -673071134#2 781757773#2 781757773#3 781757781#1 781757769#2 781757770 673076840#4 673076840#5 -673257741#4 -673071140#0 673257109#0 673257109#1"/>
    </person>
    <person id="ped109" type="ped_pedestrian" depart="1188.16">
        <walk edges="-673063374#1 -673255156 673063373#2 -673076840#5 -673076840#4 781757770 781757769#2 781757781#1 -781757773#3 -781757773#2 673071134#2 673071134#3 673071134#4 -768639719 -768639727#0 474953693#2 474953693#3 474953693#4 474953693#6 474953695#0 474953695#1 474953696#0 652807105 701455101#3 -701455101#4"/>
    </person>
    <person id="ped110" type="ped_pedestrian" depart="1199.06">
        <walk edges="939129752 -678154033#1 -678154033#0 -232152854#3 432521766#1 432521766#2 432521766#3 432521766#4"/>
    </person>
    <person id="ped111" type="ped_pedestrian" depart="1209.96">
        <walk edges="307690644#0 -668453151#0 -232866961#7 -232866961#6 -232866961#4 -232866961#3 -232866961#2 -232866961#1 -700995755 700995753#1"/>
    </person>
    <person id="ped112" type="ped_pedestrian" depart="1220.86">
        <walk edges="-341460011#1 -232866961#8 -444565298#1 -444565298#0 444565298#0"/>
    </person>
    <person id="ped113" type="ped_pedestrian" depart="1231.76">
        <walk edges="232850423#4 232850423#5 775633665#1 474953693#2 474953693#3 474953693#4 -232866961#7 775633668#0 775633670 775633669#1"/>
    </person>
    <person id="ped114" type="ped_pedestrian" depart="1242.66">
        <walk edges="-673063374#2 -673255156 673063373#2 -673076840#5 -673076840#4 781757770 781757769#2 781757781#1 781757781#2 781757781#3"/>
    </person>
    <person id="ped115" type="ped_pedestrian" depart="1253.56">
        <walk edges="-432521766#0 232152854#3 701275527#0 -232866961#9 -232866961#8 -474953693#4 -474953693#3 -474953693#2 -777424817#5 -777424817#4 -777424817#3 775633688#2 -673071139#1"/>
    </person>
    <person id="ped117" type="ped_pedestrian" depart="1275.36">
        <walk edges="-673257741#4 -673076840#5 -673076840#4 781757770 781757769#2 781757781#1 -781757773#3 -781757773#2 673071134#2 673071134#3 673071134#4 -768639719 -768639727#0 474953693#2 474953693#3 474953693#4 474953693#6 474953695#0 474953695#1 -474953695#2"/>
    </person>
    <person id="ped118" type="ped_pedestrian" depart="1286.26">
        <walk edges="775633683#0 -777424817#1 777424817#1" busStop="5188280103"/> <!-- London Circuit opposite City Police Station -->
        <walk edges="775633688#4 775633688#5 775633664#0 775633664#3 775633664#4 -678154033#1"/>
    </person>
    <person id="ped120" type="ped_pedestrian" depart="1308.07">
        <walk edges="-775633688#2 -775633688#1 -775633688#0 673071134#3 673071134#4 -768639719 -768639727#0 474953693#2 474953693#3 474953693#4 -444565298#1 -444565298#0 444565298#0"/>
    </person>
    <person id="ped121" type="ped_pedestrian" depart="1318.97">
        <walk edges="232866961#10 -232866961#9 -232866961#8 -474953693#4 -474953693#3 -474953693#2 768639723 768639719 -673071134#4 -673071134#3 -673071134#2 781757773#2 781757773#3 781757781#1 781757769#2 781757769#1"/>
    </person>
    <person id="ped122" type="ped_pedestrian" depart="1329.87">
        <walk edges="-673076840#3 673076840#4 673076840#5 -673257741#4 -673071140#0 673257109#0"/>
    </person>
    <person id="ped124" type="ped_pedestrian" depart="1351.67">
        <walk edges="673071134#4 -768639719 -768639727#0 474953693#2 474953693#3 474953693#4 474953693#6 474953695#0 474953695#1 474953695#2 474953695#3 474953695#4 702966193#0 702966194 701455101#6 -701455101#6"/>
    </person>
    <person id="ped125" type="ped_pedestrian" depart="1362.57">
        <walk edges="-713194424#1 -672435861#0 232866961#0 232866961#1 232866961#2 -700995754 700995753#3"/>
    </person>
    <person id="ped126" type="ped_pedestrian" depart="1373.47">
        <walk edges="-347384262 232152854#1 232152854#3 701275527#0 -232866961#9 -232866961#8 -474953693#4 -474953693#3 -474953693#2 768639723 768639719 -673071134#4 -781757774#1 -781757774#0"/>
    </person>
    <person id="ped127" type="ped_pedestrian" depart="1384.37">
        <walk edges="992711567 -701275527#0 -232152854#3 432521766#1 432521766#2 944883177#2"/>
    </person>
    <person id="ped128" type="ped_pedestrian" depart="1395.27">
        <walk edges="-347384262 232152854#1 232152854#3 701275528 678154033#1 -775633664#4 -775633664#3 -775633664#2 -673253658"/>
    </person>
    <person id="ped129" type="ped_pedestrian" depart="1406.17">
        <walk edges="-700995753#2 700995754 232866961#3 232866961#4 232866961#6 232866961#7 -474953693#4 -474953693#3 -474953693#2 768639723 768639719 -673071134#4 -673071134#3 673071135 781757781#3 781757769#0"/>
    </person>
    <person id="ped130" type="ped_pedestrian" depart="1417.07">
        <walk edges="775633682#2 775633682#1"/>
    </person>
    <person id="ped131" type="ped_pedestrian" depart="1427.97">
        <walk edges="-775633670 -775633668#0 232866961#7 -474953693#4 -474953693#3 -474953693#2 768639723 768639719 -673071134#4 -673071134#3 -673071134#2 781757773#2 781757773#3 781757781#1 781757769#2 781757770 673076840#4 673076840#5 -673071139#0 673255156 673063374#2 -673063374#2"/>
    </person>
    <person id="ped132" type="ped_pedestrian" depart="1438.87">
        <walk edges="775633664#0 -673253658 -673071136#1 673257741#0 673257741#1 673257741#2 -673076840#5 -673076840#4 673076840#4"/>
    </person>