<?xml version="1.0" encoding="UTF-8"?>

<!-- generated on 2022-07-15 12:15:23.133515 by randomTrips.py UNKNOWN
<configuration>
    <end value="3600"/>
    <fringe-factor value="2.0"/>
    <fringe-start-attributes value="departSpeed=&quot;max&quot;"/>
    <max-distance value="8000.0"/>
    <net-file value="osm.net.xml"/>
    <period value="13.498367"/>
    <route-file value="osm.bicycle.rou.xml"/>
    <trip-attributes value="departLane=&quot;best&quot;"/>
    <output-trip-file value="osm.bicycle.trips.xml"/>
    <prefix value="bike"/>
    <validate value="True"/>
    <vclass value="bicycle"/>
    <vehicle-class value="bicycle"/>
</configuration>
-->

<!-- generated on 2022-07-15 12:15:23 by Eclipse SUMO duarouter Version 1.14.0
<configuration xmlns:xsi="http://www.w3.org/2001/XMLSchema-instance" xsi:noNamespaceSchemaLocation="http://sumo.dlr.de/xsd/duarouterConfiguration.xsd">

    <input>
        <net-file value="osm.net.xml"/>
        <route-files value="osm.bicycle.trips.xml"/>
    </input>

    <output>
        <output-file value="osm.bicycle.rou.xml"/>
        <alternatives-output value="NUL"/>
    </output>

    <time>
        <begin value="0"/>
        <end value="3600"/>
    </time>

    <report>
        <no-warnings value="true"/>
        <ignore-errors value="true"/>
        <no-step-log value="true"/>
    </report>

</configuration>
-->

<routes xmlns:xsi="http://www.w3.org/2001/XMLSchema-instance" xsi:noNamespaceSchemaLocation="http://sumo.dlr.de/xsd/routes_file.xsd">
    <vType id="bike_bicycle" vClass="bicycle"/>
    <vehicle id="bike0" type="bike_bicycle" depart="0.00" departLane="best">
        <route edges="49478489#0 49478489#1 838023770#1 232866966#3 75867438#0 75867438#1 232866956#0 -232866956#0"/>
    </vehicle>
    <vehicle id="bike1" type="bike_bicycle" depart="13.50" departLane="best">
        <route edges="-700995755 700995755 232866961#1 232866961#2 232866961#3 700995751#0 666660152#3 333935384#2 668468055 785102259 341460011#3 341460011#4 -75867438#1 -75867438#0 -232866966#3 183079037#1 -673253659#0"/>
    </vehicle>
    <vehicle id="bike2" type="bike_bicycle" depart="27.00" departLane="best">
        <route edges="673071137#0 673257741#1 673257741#2 673071139#1 -775633688#2 668452812#1"/>
    </vehicle>
    <vehicle id="bike3" type="bike_bicycle" depart="40.50" departLane="best">
        <route edges="775633665#1 -785100395 -341460011#4 -341460011#3 489467557#0 489467557#1 232866954#0 -701275527#0 -232152854#3 432521766#1 -432521766#1"/>
    </vehicle>
    <vehicle id="bike4" type="bike_bicycle" depart="53.99" departLane="best">
        <route edges="-775633688#4 -775633688#3 -775633688#2 333934001#1 668452814 474953693#2 474953693#3 474953693#4 489692411#1 305112616#1 -700995751#1 -700995751#0 -232866961#3 -232866961#2 -232866961#1"/>
    </vehicle>
    <vehicle id="bike6" type="bike_bicycle" depart="80.99" departLane="best">
        <route edges="-232866956#1 -775633678#2 -775633678#1 775633682#1 -775633681#0 -777424817#3 775633688#2 775633688#3 -673071140#1"/>
    </vehicle>
    <vehicle id="bike7" type="bike_bicycle" depart="94.49" departLane="best">
        <route edges="571092944 572132660 668452813 668452812#0 777424817#3 -777424817#3 333934001#1 668452814 474953693#2 474953693#3 474953693#4 489692411#1 305112616#1 305112616#3 333935385#1 666660153 432521766#1 432521766#2 432521766#3 -341460010#1 -341460010#0 341460010#0"/>
    </vehicle>
    <vehicle id="bike9" type="bike_bicycle" depart="121.49" departLane="best">
        <route edges="700995755 -232866961#0 672435861#0 333935385#1 666660153 -232152854#1 347384262 -347384262 -232152854#0"/>
    </vehicle>
    <vehicle id="bike10" type="bike_bicycle" depart="134.98" departLane="best">
        <route edges="700995753#3 -700995753#3 700995754 232866961#3 700995751#0 700995751#1 305112616#3 -672435861#0 672435861#0"/>
    </vehicle>
    <vehicle id="bike11" type="bike_bicycle" depart="148.48" departLane="best">
        <route edges="-768639719 -768639727#0 668452809 -668452809"/>
    </vehicle>
    <vehicle id="bike12" type="bike_bicycle" depart="161.98" departLane="best">
        <route edges="777424812 775633664#4 838023770#1 232866966#3 75867438#0 75867438#1 785100395 -785100395 -75867438#1"/>
    </vehicle>
    <vehicle id="bike13" type="bike_bicycle" depart="175.48" departLane="best">
        <route edges="-432521766#4 -432521766#3 -432521766#2 -432521766#1 232152854#3 666660155#2 305112618#0 666660152#1 666660152#3 333935384#2 668468055 -444565298#1 -444565298#0"/>
    </vehicle>
    <vehicle id="bike14" type="bike_bicycle" depart="188.98" departLane="best">
        <route edges="713193419 701455101#5 701455101#6 753613763#1 666660152#1 666660152#3 333935384#2 668468055 474953693#6"/>
    </vehicle>
    <vehicle id="bike15" type="bike_bicycle" depart="202.48" departLane="best">
        <route edges="700995753#3 -700995753#3 700995754 232866961#3 700995751#0 666660152#3 333935384#2 668468055 -474953693#4 -474953693#3 -474953693#2 668452809 571092944 572132660 668452813 668452812#0 775633688#2 775633688#3 -673071140#1 -673257741#1 -673257741#0 673071136#1"/>
    </vehicle>
    <vehicle id="bike16" type="bike_bicycle" depart="215.97" departLane="best" departSpeed="max">
        <route edges="307690644#0 668453151#0 -474953693#4 -474953693#3 -474953693#2 768639723 768639719 -673071134#4 -781757774#1 781757773#1"/>
    </vehicle>
    <vehicle id="bike17" type="bike_bicycle" depart="229.47" departLane="best">
        <route edges="-775633678#2 775633678#2 -232866956#0 -341460011#4 -341460011#3 -341460011#1 341460011#1"/>
    </vehicle>
    <vehicle id="bike18" type="bike_bicycle" depart="242.97" departLane="best">
        <route edges="701455101#3 701455101#4 701455101#5 701455101#6 753613763#1 666660152#1 666660152#3 -707537512#1 -707537512#0 -474953695#2 -474953695#1 -474953698 474953698"/>
    </vehicle>
    <vehicle id="bike19" type="bike_bicycle" depart="256.47" departLane="best">
        <route edges="753613763#0 753613763#1 333935385#1 666660153 432521766#1 432521766#2 432521766#3"/>
    </vehicle>
    <vehicle id="bike20" type="bike_bicycle" depart="269.97" departLane="best">
        <route edges="673063373#0 673063373#1 673063373#2 673071139#1 -775633688#2 668452812#1 543219906#0 668485023#0 668485023#1 838023770#1 -232866966#1"/>
    </vehicle>
    <vehicle id="bike21" type="bike_bicycle" depart="283.47" departLane="best">
        <route edges="-673257109#0 673257108 673063373#2 673071139#1 -775633688#2 333934001#1 668452814 474953693#2 474953693#3 474953693#4 489692411#1 305112616#1 305112616#3 -753613763#1 -701455101#6 -701455101#5 -701455101#4 -701455101#3 -701455101#2 -701455101#1 -701455101#0"/>
    </vehicle>
    <vehicle id="bike22" type="bike_bicycle" depart="296.96" departLane="best">
        <route edges="-350991780#0 700995753#2 700995754 232866961#3 700995751#0 666660152#3 333935384#2 668468055 -474953693#4 -474953693#3 -474953693#2 668452809 571092944 572132660 668452813 668452812#0 775633688#2 -673071139#1 -673071139#0 -673257108 -673257110"/>
    </vehicle>
    <vehicle id="bike24" type="bike_bicycle" depart="323.96" departLane="best">
        <route edges="489467557#1 -489467557#1 -489467557#0 -785102259 -232866961#7 775633668#0 -775633668#0"/>
    </vehicle>
    <vehicle id="bike25" type="bike_bicycle" depart="337.46" departLane="best">
        <route edges="-775633669#1 -775633669#0 -707537512#2 333935384#2 668468055 -474953693#4 -474953693#3 -474953693#2 668452809 571092944 572132660 668452813 668452812#0 775633688#2 -673071139#1 -673076840#5 -673076840#4 -673076840#3 -673076840#2"/>
    </vehicle>
    <vehicle id="bike26" type="bike_bicycle" depart="350.96" departLane="best">
        <route edges="-700995753#1 700995755 232866961#1 232866961#2 232866961#3 700995751#0 666660152#3 333935384#2 668468055 -474953693#4 -474953693#3 -474953693#2 668452809 571092944 572132660 668452813 668452812#0 -777424817#2 775633683#0 775633684#1"/>
    </vehicle>
    <vehicle id="bike27" type="bike_bicycle" depart="364.46" departLane="best">
        <route edges="545142128#1 -673257109#0 673257108 673063373#2 673071139#1 -775633688#2 333934001#1 668452814 474953693#2 474953693#3 474953693#4 489692411#1 -707537512#0 -474953695#2 474953695#2"/>
    </vehicle>
    <vehicle id="bike29" type="bike_bicycle" depart="391.45" departLane="best">
        <route edges="-673063374#0 673063374#0 673063374#1 -673255156 673063373#2 673071139#1 -775633688#2 333934001#1 668452814 -785100395 -775633665#0 -775633678#3"/>
    </vehicle>
    <vehicle id="bike30" type="bike_bicycle" depart="404.95" departLane="best">
        <route edges="785102259 341460011#3 341460011#4 785100395 668452809 571092944 572132660 668452813 668452812#0 668452812#1 543219906#0"/>
    </vehicle>
    <vehicle id="bike31" type="bike_bicycle" depart="418.45" departLane="best">
        <route edges="341460011#0 341460011#1 -785102259 489692411#1 707537512#1 333935384#2 668468055"/>
    </vehicle>
    <vehicle id="bike32" type="bike_bicycle" depart="431.95" departLane="best">
        <route edges="707537512#1 333935384#2 668468055 -474953693#4 -474953693#3 -474953693#2 668452809 571092944 572132660 668452813 668452812#0 775633688#2 775633688#3 -673071140#1 -673257741#1 -673257741#0 673257741#0"/>
    </vehicle>
    <vehicle id="bike33" type="bike_bicycle" depart="445.45" departLane="best">
        <route edges="-673257109#0 673257108 673063373#2 673071139#1 -775633688#2 333934001#1 668452814 474953693#2 474953693#3 474953693#4 489692411#1 305112616#1 -700995751#1 -700995751#0 -232866961#3 -232866961#2"/>
    </vehicle>
    <vehicle id="bike34" type="bike_bicycle" depart="458.94" departLane="best">
        <route edges="-713194424#1 713194424#0 666660152#1 -700995751#0 -232866961#3 -700995754 -700995753#2"/>
    </vehicle>
    <vehicle id="bike35" type="bike_bicycle" depart="472.44" departLane="best">
        <route edges="-673076840#3 673076840#3 673076840#4 673076840#5 673071139#1 -775633688#2 775633688#2"/>
    </vehicle>
    <vehicle id="bike36" type="bike_bicycle" depart="485.94" departLane="best">
        <route edges="768639723 -768639727#0 474953693#2 474953693#3 474953693#4 489692411#1 305112616#1 305112616#3 -713194424#1"/>
    </vehicle>
    <vehicle id="bike38" type="bike_bicycle" depart="512.94" departLane="best">
        <route edges="775633679#1 -775633679#1 -775633679#0 775633678#2 -232866956#0 785100395 -785100395"/>
    </vehicle>
    <vehicle id="bike40" type="bike_bicycle" depart="539.93" departLane="best">
        <route edges="341460011#3 -341460011#3 -785102259 489692411#1 305112616#1 -700995751#1"/>
    </vehicle>
    <vehicle id="bike41" type="bike_bicycle" depart="553.43" departLane="best">
        <route edges="432521766#3 -432521766#3 -432521766#2 -432521766#1 232152854#3 666660155#2 305112618#0 666660152#1 666660152#3 707537512#2 775633669#0 775633669#1"/>
    </vehicle>
    <vehicle id="bike44" type="bike_bicycle" depart="593.93" departLane="best">
        <route edges="-432521766#3 -432521766#2 -432521766#1 666660154#1 572132657 673118337 307292432 666660156 4189988 49478489#0 49478489#1 838023770#1 -232866966#1"/>
    </vehicle>
    <vehicle id="bike46" type="bike_bicycle" depart="620.92" departLane="best">
        <route edges="693124517#0 668485050#1 668485040 -775633664#2 -673253658 -775633688#4"/>
    </vehicle>
    <vehicle id="bike47" type="bike_bicycle" depart="634.42" departLane="best">
        <route edges="-341460011#1 341460011#1 341460011#3 341460011#4 232866956#0 -775633678#2 775633679#0 -775633679#0"/>
    </vehicle>
    <vehicle id="bike49" type="bike_bicycle" depart="661.42" departLane="best">
        <route edges="777424825#0 668485023#1 668485027#2 668485032 307292431 994397868 4189987 666660155#0 666660155#2 305112618#0 713194426#2 701455095#1 -753613765#1 -753613765#0 753613765#0"/>
    </vehicle>
    <vehicle id="bike50" type="bike_bicycle" depart="674.92" departLane="best">
        <route edges="-232152854#3 232152854#3 666660155#2 305112618#0 666660152#1 666660152#3 333935384#2 668468055 -474953693#4 -474953693#3 -474953693#2 768639723 768639719 -673071134#4 -781757774#1 781757773#1 673071134#2"/>
    </vehicle>
    <vehicle id="bike51" type="bike_bicycle" depart="688.42" departLane="best">
        <route edges="668452812#1 543219906#0 668485023#0 777424825#1 673118336#1 333934000 333934001#1"/>
    </vehicle>
    <vehicle id="bike52" type="bike_bicycle" depart="701.92" departLane="best">
        <route edges="-700995753#1 700995755 232866961#1 232866961#2 232866961#3 700995751#0 666660152#3 333935384#2 668468055 -474953693#4 -474953693#3 -474953693#2 668452809 571092944 572132660 668452813 668452812#0 775633688#2 -673071139#1 -673071139#0 -673257108 673257109#0 -545142128#1 -545142128#0 545142128#0"/>
    </vehicle>
    <vehicle id="bike53" type="bike_bicycle" depart="715.41" departLane="best">
        <route edges="-474953686#1 474953686#0 668452809 571092944 572132660 668452813 668452812#0 -777424817#2"/>
    </vehicle>
    <vehicle id="bike54" type="bike_bicycle" depart="728.91" departLane="best">
        <route edges="-781757773#3 -781757773#2 673071134#2 673071135 775633688#1 668452812#1 543219906#0 668485023#0 668485023#1 -775633664#4 -777424812 777424812"/>
    </vehicle>
    <vehicle id="bike55" type="bike_bicycle" depart="742.41" departLane="best">
        <route edges="768639719 -768639719 -768639727#0 474953693#2 474953693#3 474953693#4 489692411#1 305112616#1 -700995751#1 -700995751#0 -232866961#3 -232866961#2 -232866961#1 -700995755 -700995753#0"/>
    </vehicle>
    <vehicle id="bike56" type="bike_bicycle" depart="755.91" departLane="best">
        <route edges="232866961#1 232866961#2 232866961#3 700995751#0 666660152#3 333935384#2 668468055 -474953693#4 -474953693#3 -474953693#2 768639723 768639719 -673071134#4 -673071134#3 -673071134#2"/>
    </vehicle>
    <vehicle id="bike57" type="bike_bicycle" depart="769.41" departLane="best">
        <route edges="775633679#0 -775633681#1 -775633681#0 -777424817#3 -775633688#1 -775633688#0 673071134#3 673071134#4 -768639719 768639719"/>
    </vehicle>
    <vehicle id="bike58" type="bike_bicycle" depart="782.91" departLane="best">
        <route edges="-701455101#4 701455101#4 701455101#5 701455101#6 753613763#1 666660152#1 666660152#3 333935384#2 668468055 -474953693#4 -474953693#3 -474953693#2 668452809 571092944 572132660 668452813 668452812#0 668452812#1 543219906#0"/>
    </vehicle>
    <vehicle id="bike59" type="bike_bicycle" depart="796.40" departLane="best">
        <route edges="474953693#3 474953693#4 489692411#1 305112616#1 305112616#3 -753613763#1 -701455101#6 -701455101#5 -701455101#4 -701455101#3 -701455101#2 -657446604"/>
    </vehicle>
    <vehicle id="bike60" type="bike_bicycle" depart="809.90" departLane="best">
        <route edges="673118336#1 333934000 333934001#1 668452814 474953693#2 474953693#3 474953693#4 489692411#1 707537512#1 333935384#2"/>
    </vehicle>
    <vehicle id="bike61" type="bike_bicycle" depart="823.40" departLane="best">
        <route edges="673257741#0 -673257741#0 673071136#1 775633688#5 775633664#0 -777424825#1 668485023#1 838023770#1 -232866966#1 -307292406 307292406"/>
    </vehicle>
    <vehicle id="bike62" type="bike_bicycle" depart="836.90" departLane="best">
        <route edges="-1009372632 232152854#1 232152854#3 666660155#2 305112618#0 -713194426#0 -713194427"/>
    </vehicle>
    <vehicle id="bike63" type="bike_bicycle" depart="850.40" departLane="best">
        <route edges="-232850423#4 -232850423#3 232866966#3 75867438#0 75867438#1 785100395 668452809 571092944 572132660 668452813 668452812#0 -777424817#2 -777424817#1 -775633682#6 775633682#6"/>
    </vehicle>
    <vehicle id="bike64" type="bike_bicycle" depart="863.90" departLane="best">
        <route edges="768639727#1 -768639727#1 -768639727#0 474953693#2 474953693#3 474953693#4 489692411#1 305112616#1 305112616#3 -753613763#1 -701455101#6 701455101#6"/>
    </vehicle>
    <vehicle id="bike65" type="bike_bicycle" depart="877.39" departLane="best">
        <route edges="-707537512#0 707537512#0 305112616#1 305112616#3 333935385#1 666660153 432521766#1 432521766#2 432521766#3 -341460010#1 -341460010#0"/>
    </vehicle>
    <vehicle id="bike66" type="bike_bicycle" depart="890.89" departLane="best">
        <route edges="768639723 768639719 -673071134#4 -673071134#3 673071135 775633688#1 775633688#2 775633688#3 775633688#4"/>
    </vehicle>
    <vehicle id="bike67" type="bike_bicycle" depart="904.39" departLane="best">
        <route edges="-432521766#0 -713194426#2 666660152#1 666660152#3 333935384#2 668468055 -232850424#1 232850424#0"/>
    </vehicle>
    <vehicle id="bike68" type="bike_bicycle" depart="917.89" departLane="best">
        <route edges="-341460013#0 341460013#0 341460010#0 341460010#1 -432521766#3 -432521766#2 -432521766#1 666660154#1 572132657 673118337"/>
    </vehicle>
    <vehicle id="bike69" type="bike_bicycle" depart="931.39" departLane="best">
        <route edges="673118337 307292432 666660156 4189988 49478489#0 49478489#1 838023770#1 232866966#3 75867438#0 75867438#1 -341460011#4 -341460011#3 -785102259 474953693#6 474953695#0 -474953698"/>
    </vehicle>
    <vehicle id="bike70" type="bike_bicycle" depart="944.89" departLane="best">
        <route edges="232152854#1 232152854#3 701275527#0 -232866954#0 -489467557#1 -489467557#0 -341460011#1 -341460011#0 341460011#0"/>
    </vehicle>
    <vehicle id="bike71" type="bike_bicycle" depart="958.38" departLane="best">
        <route edges="-700995753#0 700995753#0 700995753#1 700995750#1 232866961#2 232866961#3 700995751#0 666660152#3 333935384#2 668468055 -474953693#4 -474953693#3 -474953693#2 768639723"/>
    </vehicle>
    <vehicle id="bike72" type="bike_bicycle" depart="971.88" departLane="best">
        <route edges="-775633689 775633689 775633664#0 673118336#1 333934000 775633688#2 -673071139#1 -673076840#5 -673076840#4 -673076840#3"/>
    </vehicle>
    <vehicle id="bike73" type="bike_bicycle" depart="985.38" departLane="best" departSpeed="max">
        <route edges="333933989#0 668485050#1 668485040 -775633664#2 -673253658 -673071136#1 673071136#1"/>
    </vehicle>
    <vehicle id="bike74" type="bike_bicycle" depart="998.88" departLane="best">
        <route edges="-673075701#0 673075701#0 -768639719 -768639727#0 474953693#2 474953693#3 474953693#4 489692411#1 707537512#1 707537512#2 -707537512#2"/>
    </vehicle>
    <vehicle id="bike75" type="bike_bicycle" depart="1012.38" departLane="best">
        <route edges="992711567 -232866954#0 -489467557#1 -489467557#0 341460011#3 341460011#4 785100395 668452809 571092944 572132660"/>
    </vehicle>
    <vehicle id="bike76" type="bike_bicycle" depart="1025.88" departLane="best">
        <route edges="-777424817#3 668452812#1 543219906#0 668485023#0 668485023#1 838023770#1 -232866966#1 232866966#0"/>
    </vehicle>
    <vehicle id="bike77" type="bike_bicycle" depart="1039.37" departLane="best">
        <route edges="-474953695#1 -474953695#0 -768639722 -474953693#4 -474953693#3 -474953693#2 668452809 571092944 572132660 668452813 668452812#0 775633688#2 -673071139#1 -673071139#0 673255156 -673255156"/>
    </vehicle>
    <vehicle id="bike79" type="bike_bicycle" depart="1066.37" departLane="best">
        <route edges="-673257109#1 -673257109#0 -673257110 673071140#1 775633688#4 775633688#5 -673253658"/>
    </vehicle>
    <vehicle id="bike80" type="bike_bicycle" depart="1079.87" departLane="best">
        <route edges="-341460013#1 341460010#0 341460010#1 -432521766#3 -432521766#2 -432521766#1 232152854#3 701275527#0 -232866954#0 -489467557#1 489467557#1"/>
    </vehicle>
    <vehicle id="bike81" type="bike_bicycle" depart="1093.37" departLane="best">
        <route edges="-673257109#0 673257108 673063373#2 673071139#1 -775633688#2 777424817#3 775633681#0 -775633682#1 775633678#1 775633678#2"/>
    </vehicle>
    <vehicle id="bike83" type="bike_bicycle" depart="1120.36" departLane="best">
        <route edges="-673257741#1 -673257741#0 673071136#1 775633688#5 775633664#0 -777424825#1 668485023#1 668485027#2 668485032 307292431 994397868 4189987 666660155#0 666660155#2"/>
    </vehicle>
    <vehicle id="bike84" type="bike_bicycle" depart="1133.86" departLane="best">
        <route edges="-673076840#5 673076840#5 673071139#1 -775633688#2 668452812#1 543219906#0 668485023#0 668485023#1 838023770#1 -232866966#1 -307292406 -4790248"/>
    </vehicle>
    <vehicle id="bike85" type="bike_bicycle" depart="1147.36" departLane="best">
        <route edges="775633683#1 -775633682#2 -775633682#1 775633678#1 775633678#2 -232866956#0 -341460011#4 -341460011#3 489467557#0 489467557#1 232866954#0 -701275527#0 -232152854#3 666660154#1 572132657 673118337 307292432 666660156 4189988"/>
    </vehicle>
    <vehicle id="bike87" type="bike_bicycle" depart="1174.36" departLane="best">
        <route edges="700995754 232866961#3 700995751#0 666660152#3 333935384#2 668468055 -474953693#4 -474953693#3 -474953693#2 668452809 571092944 572132660 668452813 668452812#0 775633688#2 775633688#3 -673071140#1 -673257741#1 673071137#1 -673071137#1"/>
    </vehicle>
    <vehicle id="bike88" type="bike_bicycle" depart="1187.86" departLane="best">
        <route edges="-444565298#0 444565298#0 444565298#1 -474953693#4 -474953693#3 -474953693#2 668452809 571092944 572132660 668452813 668452812#0 -777424817#2 -777424817#1 -777424817#0"/>
    </vehicle>
    <vehicle id="bike89" type="bike_bicycle" depart="1201.35" departLane="best">
        <route edges="-775633689 775633689 775633664#0 -777424825#1 668485023#1 838023770#1 183079037#1"/>
    </vehicle>
    <vehicle id="bike90" type="bike_bicycle" depart="1214.85" departLane="best">
        <route edges="673071135 775633688#1 333934001#1 668452814 668452809"/>
    </vehicle>
    <vehicle id="bike91" type="bike_bicycle" depart="1228.35" departLane="best">
        <route edges="781757774#0 781757774#1 673071134#4 -768639719 -768639727#0 474953693#2 474953693#3 474953693#4 -444565298#1"/>
    </vehicle>
    <vehicle id="bike92" type="bike_bicycle" depart="1241.85" departLane="best">
        <route edges="-775633682#6 -775633684#1 -775633683#0 777424817#2 333934001#1 668452814 474953693#2 474953693#3 474953693#4 474953693#6 768639715 -768639715"/>
    </vehicle>
    <vehicle id="bike93" type="bike_bicycle" depart="1255.35" departLane="best">
        <route edges="753613763#0 753613763#1 333935385#1 666660153 232152854#3 701275528 -678154033#0"/>
    </vehicle>
    <vehicle id="bike94" type="bike_bicycle" depart="1268.85" departLane="best">
        <route edges="-673071137#1 673257741#1 673257741#2 -673076840#5 -673076840#4 -673076840#3 -673076840#2 -673076840#1 673071134#1 -781757773#1"/>
    </vehicle>
    <vehicle id="bike95" type="bike_bicycle" depart="1282.34" departLane="best">
        <route edges="-775633688#4 -775633688#3 -775633688#2 333934001#1 668452814 -785100395 -341460011#4 -341460011#3 489467557#0 489467557#1 232866954#0 701275527#2 -701275527#2"/>
    </vehicle>
    <vehicle id="bike96" type="bike_bicycle" depart="1295.84" departLane="best">
        <route edges="-678154033#1 678154033#1 668485050#1 668485040 673118336#1 333934000 777424817#3 775633681#0 775633682#2"/>
    </vehicle>
    <vehicle id="bike97" type="bike_bicycle" depart="1309.34" departLane="best">
        <route edges="-777424825#0 777424825#0 668485023#1 668485027#2 668485032 307292431 994397868 4189987 666660155#0 666660155#2 305112618#0 713194426#2 701455095#1 -753613765#1 -753613765#0 753613765#0"/>
    </vehicle>
    <vehicle id="bike99" type="bike_bicycle" depart="1336.34" departLane="best">
        <route edges="994397868 4189987 666660155#0 666660155#2 305112618#0 713194426#2 701455095#1 -753613765#1 701455101#9"/>
    </vehicle>
    <vehicle id="bike100" type="bike_bicycle" depart="1349.84" departLane="best">
        <route edges="777424817#5 668452809 571092944 572132660 668452813 668452812#0 -777424817#2 775633683#0 775633684#1 -775633682#5 775633682#5"/>
    </vehicle>
    <vehicle id="bike101" type="bike_bicycle" depart="1363.34" departLane="best">
        <route edges="713193419 701455101#5 701455101#6 753613763#1 666660152#1 666660152#3 333935384#2 668468055 -474953693#4 -474953693#3 -474953693#2 668452809 571092944 572132660 668452813 668452812#0 775633688#2 -673071139#1 -673071139#0 673255156 -673063374#1"/>
    </vehicle>
    <vehicle id="bike102" type="bike_bicycle" depart="1376.83" departLane="best">
        <route edges="232850424#0 -474953693#4 -474953693#3 -474953693#2 668452809 571092944 572132660 668452813 668452812#0 775633688#2 -673071139#1 -673076840#5 -673076840#4"/>
    </vehicle>
    <vehicle id="bike103" type="bike_bicycle" depart="1390.33" departLane="best">
        <route edges="-775633682#6 -775633684#1 -775633683#0 777424817#2 333934001#1 668452814 474953693#2 474953693#3 474953693#4 489692411#1 305112616#1 305112616#3 333935385#1 666660153 432521766#1 432521766#2 432521766#3 -341460010#1 -341460010#0"/>
    </vehicle>
    <vehicle id="bike104" type="bike_bicycle" depart="1403.83" departLane="best">
        <route edges="-775633678#2 775633678#2 -232866956#0 -341460011#4 -341460011#3 -785102259 785102259"/>
    </vehicle>
    <vehicle id="bike105" type="bike_bicycle" depart="1417.33" departLane="best">
        <route edges="-700995753#0 700995753#0 700995755 -232866961#0 672435861#0 333935385#1 666660153 232152854#3 701275528 678154033#1"/>
    </vehicle>
    <vehicle id="bike106" type="bike_bicycle" depart="1430.83" departLane="best">
        <route edges="-781757774#0 781757774#0 781757773#1 673071134#2 673071135 775633688#1 668452812#1 543219906#0 668485023#0 777424825#1 -775633664#2 -775633689"/>
    </vehicle>
    <vehicle id="bike107" type="bike_bicycle" depart="1444.33" departLane="best">
        <route edges="777424812 775633664#4 838023770#1 232866966#3 75867438#0 75867438#1 -341460011#4 -341460011#3 489467557#0 489467557#1 232866954#0 232866961#10 992711567"/>
    </vehicle>
    <vehicle id="bike108" type="bike_bicycle" depart="1457.82" departLane="best">
        <route edges="341460010#1 -432521766#3 -432521766#2 -432521766#1 232152854#3 666660155#2 305112618#0 666660152#1 666660152#3 333935384#2 668468055 -474953693#4 -474953693#3 -474953693#2 768639723 768639719 -673071134#4 -781757774#1 781757773#1 -673071134#1 673071134#1"/>
    </vehicle>
    <vehicle id="bike109" type="bike_bicycle" depart="1471.32" departLane="best">
        <route edges="-666660156 666660156 4189988 49478489#0 49478489#1 668485027#2 668485032 307292431 994397868 4189987 666660155#0 666660155#2 305112618#0 -753613763#1 -701455101#6 -701455101#5 -701455101#4"/>
    </vehicle>
    <vehicle id="bike110" type="bike_bicycle" depart="1484.82" departLane="best">
        <route edges="777424817#5 474953693#2 474953693#3 474953693#4 489692411#1 305112616#1 305112616#3 333935385#1 666660153 432521766#1 432521766#2 432521766#3 432521766#4"/>
    </vehicle>
    <vehicle id="bike111" type="bike_bicycle" depart="1498.32" departLane="best" departSpeed="max">
        <route edges="333933989#0 668485050#1 668485040 673118336#1 333934000 -775633688#1 -775633688#0 -673071134#2 -673071134#1 673076840#1"/>
    </vehicle>
    <vehicle id="bike112" type="bike_bicycle" depart="1511.82" departLane="best">
        <route edges="-341460010#0 341460010#0 341460010#1 -432521766#3 -432521766#2 -432521766#1 232152854#3 666660155#2 305112618#0 666660152#1 666660152#3 333935384#2 668468055 -444565298#1 444565298#1"/>
    </vehicle>
    <vehicle id="bike113" type="bike_bicycle" depart="1525.32" departLane="best">
        <route edges="232866961#10 992711567 -701275527#0 666660155#2 305112618#0 -672435861#0 713194427"/>
    </vehicle>
    <vehicle id="bike114" type="bike_bicycle" depart="1538.81" departLane="best">
        <route edges="-672435861#0 672435861#0 666660152#1 666660152#3 333935384#2 668468055 -474953693#4 -474953693#3 -474953693#2 668452809 571092944 572132660 668452813 668452812#0 777424817#3"/>
    </vehicle>
    <vehicle id="bike115" type="bike_bicycle" depart="1552.31" departLane="best">
        <route edges="-350991780#0 700995753#2 700995754 232866961#3 700995751#0 666660152#3 333935384#2 668468055 -474953693#4 -474953693#3 -474953693#2 668452809 571092944 572132660 668452813 668452812#0 775633688#2 775633688#3 775633688#4 -673071136#1"/>
    </vehicle>
    <vehicle id="bike117" type="bike_bicycle" depart="1579.31" departLane="best">
        <route edges="-673257112 673257112 653131059#1 -673257110 673257741#2 673071139#1 -775633688#2 333934001#1 668452814 474953693#2 474953693#3 474953693#4 489692411#1 -707537512#0 -474953695#2 -474953695#1"/>
    </vehicle>
    <vehicle id="bike120" type="bike_bicycle" depart="1619.80" departLane="best">
        <route edges="-775633688#3 -775633688#2 333934001#1 668452814 474953693#2 474953693#3 474953693#4 -444565298#1 444565298#1"/>
    </vehicle>
    <vehicle id="bike121" type="bike_bicycle" depart="1633.30" departLane="best">
        <route edges="305112616#1 -700995751#1 666660152#3 333935384#2 668468055 -474953693#4 -474953693#3 -474953693#2 668452809 571092944 572132660 668452813 668452812#0 -777424817#2 775633683#0 -775633684#0 775633684#0"/>
    </vehicle>
    <vehicle id="bike122" type="bike_bicycle" depart="1646.80" departLane="best">
        <route edges="-673075701#1 -673071134#4 -781757774#1 781757773#1 -673071134#1 -673071134#0 673071134#0"/>
    </vehicle>
    <vehicle id="bike123" type="bike_bicycle" depart="1660.30" departLane="best">
        <route edges="-673257741#1 673257741#1 673257741#2 673071139#1 -775633688#2 -777424817#2 775633683#0 775633683#1 -775633682#2"/>
    </vehicle>
    <vehicle id="bike124" type="bike_bicycle" depart="1673.80" departLane="best">
        <route edges="666660155#0 666660155#2 305112618#0 -753613763#1 -701455101#6 -701455101#5"/>
    </vehicle>