<?xml version="1.0" encoding="UTF-8"?>

<!-- generated on 2022-07-15 12:15:32.144308 by randomTrips.py UNKNOWN
<configuration>
    <end value="3600"/>
    <fringe-factor value="5.0"/>
    <fringe-start-attributes value="departSpeed=&quot;max&quot;"/>
    <min-distance value="600.0"/>
    <net-file value="osm.net.xml"/>
    <period value="26.977867"/>
    <route-file value="osm.truck.rou.xml"/>
    <trip-attributes value="departLane=&quot;best&quot;"/>
    <output-trip-file value="osm.truck.trips.xml"/>
    <prefix value="truck"/>
    <validate value="True"/>
    <vclass value="truck"/>
    <vehicle-class value="truck"/>
</configuration>
-->

<!-- generated on 2022-07-15 12:15:32 by Eclipse SUMO duarouter Version 1.14.0
<configuration xmlns:xsi="http://www.w3.org/2001/XMLSchema-instance" xsi:noNamespaceSchemaLocation="http://sumo.dlr.de/xsd/duarouterConfiguration.xsd">

    <input>
        <net-file value="osm.net.xml"/>
        <route-files value="osm.truck.trips.xml"/>
    </input>

    <output>
        <output-file value="osm.truck.rou.xml"/>
        <alternatives-output value="NUL"/>
    </output>

    <time>
        <begin value="0"/>
        <end value="3600"/>
    </time>

    <report>
        <no-warnings value="true"/>
        <ignore-errors value="true"/>
        <no-step-log value="true"/>
    </report>

</configuration>
-->

<routes xmlns:xsi="http://www.w3.org/2001/XMLSchema-instance" xsi:noNamespaceSchemaLocation="http://sumo.dlr.de/xsd/routes_file.xsd">
    <vType id="truck_truck" vClass="truck"/>
    <vehicle id="truck0" type="truck_truck" depart="0.00" departLane="best" departSpeed="max">
        <route edges="333933989#0 668485050#1 668485040 673118336#1 333934000 333934001#1"/>
    </vehicle>
    <vehicle id="truck1" type="truck_truck" depart="26.98" departLane="best" departSpeed="max">
        <route edges="307690644#0 668453151#0 489692411#1 305112616#1 305112616#3 333935385#1 666660153 666660154#1 572132657 673118337 994397867 74098875 205017220 675393890 61239093"/>
    </vehicle>
    <vehicle id="truck2" type="truck_truck" depart="53.96" departLane="best" departSpeed="max">
        <route edges="307690644#0 668453151#0 489692411#1 305112616#1 305112616#3 333935385#1 666660153"/>
    </vehicle>
    <vehicle id="truck3" type="truck_truck" depart="80.93" departLane="best">
        <route edges="668485027#2 668485032 307292431 994397868 4189987 666660155#0 666660155#2 305112618#0 666660152#1 666660152#3 333935384#2 668468055"/>
    </vehicle>
    <vehicle id="truck4" type="truck_truck" depart="107.91" departLane="best">
        <route edges="673118336#1 333934000 333934001#1 668452814 668452809 571092944 572132660 668452813 668452812#0 668452812#1 543219906#0 668485023#0 668485023#1 668485027#2 668485032 307292431 994397868 4189987 666660155#0"/>
    </vehicle>
    <vehicle id="truck6" type="truck_truck" depart="161.87" departLane="best">
        <route edges="668485050#1 668485040 673118336#1 333934000 333934001#1 668452814 668452809 571092944 572132660 668452813 668452812#0 668452812#1 543219906#0 668485023#0 668485023#1 668485027#2 668485032 307292431 994397868 4189987 666660155#0 666660155#2"/>
    </vehicle>
    <vehicle id="truck10" type="truck_truck" depart="269.78" departLane="best">
        <route edges="307292432 666660156 4189988 49478489#0 49478489#1 838023770#1 232866966#3 75867438#0 75867438#1 785100395 489467547#1"/>
    </vehicle>
    <vehicle id="truck11" type="truck_truck" depart="296.76" departLane="best">
        <route edges="994397868 4189987 666660155#0 666660155#2 305112618#0 666660152#1 666660152#3 333935384#2 668468055 489692410 668452809"/>
    </vehicle>
    <vehicle id="truck13" type="truck_truck" depart="350.71" departLane="best">
        <route edges="673118336#1 333934000 333934001#1 668452814 489467563 489692411#1 305112616#1 305112616#3 333935385#1 666660153 666660154#1 572132657 673118337"/>
    </vehicle>
    <vehicle id="truck15" type="truck_truck" depart="404.67" departLane="best">
        <route edges="666660153 666660154#1 572132657 673118337 307292432 666660156 4189988 49478489#0 49478489#1 838023770#1 232866966#3 75867438#0 75867438#1 785100395 489467547#1"/>
    </vehicle>
    <vehicle id="truck16" type="truck_truck" depart="431.65" departLane="best" departSpeed="max">
        <route edges="333933989#0 668485027#2 668485032 307292431 994397868 4189987"/>
    </vehicle>
    <vehicle id="truck17" type="truck_truck" depart="458.62" departLane="best">
        <route edges="571092944 572132660 668452813 668452812#0 668452812#1 543219906#0 668485023#0 668485023#1 979435613"/>
    </vehicle>
    <vehicle id="truck19" type="truck_truck" depart="512.58" departLane="best">
        <route edges="305112616#1 305112616#3 333935385#1 666660153 666660154#1 572132657 673118337 307292432 666660156"/>
    </vehicle>
    <vehicle id="truck20" type="truck_truck" depart="539.56" departLane="best">
        <route edges="668453151#0 785102259 489467557#0 489467557#1 232866954#0 232866954#1 138708547 4790252 61239094"/>
    </vehicle>
    <vehicle id="truck22" type="truck_truck" depart="593.51" departLane="best">
        <route edges="4749666 49478489#0 49478489#1 668485050#1 668485040 673118336#1 333934000"/>
    </vehicle>
    <vehicle id="truck23" type="truck_truck" depart="620.49" departLane="best">
        <route edges="489692411#1 305112616#1 305112616#3 333935385#1 666660153 666660154#1 572132657 673118337 307292432 666660156 4189988 49478489#0 49478489#1 668485027#2 668485032"/>
    </vehicle>
    <vehicle id="truck24" type="truck_truck" depart="647.47" departLane="best" departSpeed="max">
        <route edges="307690644#0 668453151#0 785102259 489467557#0 489467557#1 232866954#0 232866954#1 138708547 4790252"/>
    </vehicle>
    <vehicle id="truck25" type="truck_truck" depart="674.45" departLane="best">
        <route edges="994397868 4189987 666660155#0 666660155#2 305112618#0 666660152#1 666660152#3 333935384#2 668468055 489692410 668452809 571092944 572132660 668452813 668452812#0"/>
    </vehicle>
    <vehicle id="truck26" type="truck_truck" depart="701.42" departLane="best" departSpeed="max">
        <route edges="333933989#0 668485050#1 668485040 673118336#1 333934000 333934001#1"/>
    </vehicle>
    <vehicle id="truck27" type="truck_truck" depart="728.40" departLane="best" departSpeed="max">
        <route edges="307690644#0 668453151#0 489692411#1 305112616#1 305112616#3 333935385#1 666660153 666660154#1 572132657 673118337 307292432 666660156 4189988 49478489#0"/>
    </vehicle>
    <vehicle id="truck28" type="truck_truck" depart="755.38" departLane="best">
        <route edges="994397868 4189987 666660155#0 666660155#2 305112618#0 666660152#1 666660152#3 333935384#2 668468055 785102259 489467557#0 117617939#0 117617939#1 75867438#1 785100395"/>
    </vehicle>
    <vehicle id="truck29" type="truck_truck" depart="782.36" departLane="best">
        <route edges="673118336#1 333934000 333934001#1 668452814 668452809 571092944 572132660 668452813 668452812#0 668452812#1 543219906#0 668485023#0 668485023#1 668485027#2 668485032 307292431 994397868 4189987 666660155#0 666660155#2 305112618#0"/>
    </vehicle>
    <vehicle id="truck30" type="truck_truck" depart="809.34" departLane="best">
        <route edges="488680655#2 307292431 994397868 4189987 666660155#0 666660155#2 305112618#0 666660152#1 666660152#3 333935384#2 668468055 785102259 489467557#0 489467557#1 232866954#0 232866954#1 979435612 232866966#0 183079037#1 668485050#1 668485040 673118336#1 333934000 333934001#1"/>
    </vehicle>
    <vehicle id="truck34" type="truck_truck" depart="917.25" departLane="best" departSpeed="max">
        <route edges="307690644#0 668453151#0 489692410 668452809 571092944 572132660 668452813 668452812#0 668452812#1 543219906#0 668485023#0 668485023#1"/>
    </vehicle>
    <vehicle id="truck35" type="truck_truck" depart="944.23" departLane="best" departSpeed="max">
        <route edges="333933989#0 838023770#1 232866966#3 75867438#0 75867438#1 785100395 489467547#1"/>
    </vehicle>
    <vehicle id="truck36" type="truck_truck" depart="971.20" departLane="best">
        <route edges="333935385#1 666660153 666660154#1 572132657 673118337 307292432 666660156 4189988 49478489#0 49478489#1 668485050#1"/>
    </vehicle>
    <vehicle id="truck39" type="truck_truck" depart="1052.14" departLane="best">
        <route edges="572132660 668452813 668452812#0 668452812#1 543219906#0 668485023#0 668485023#1 838023770#1 232866966#3 75867438#0 75867438#1 785100395 489467563 489692411#1 305112616#1 305112616#3 333935385#1 666660153 666660154#1 572132657 673118337 994397867"/>
    </vehicle>
    <vehicle id="truck40" type="truck_truck" depart="1079.11" departLane="best">
        <route edges="232866970 232866954#0 232866954#1 138708547 4790252 61239094"/>
    </vehicle>
    <vehicle id="truck41" type="truck_truck" depart="1106.09" departLane="best" departSpeed="max">
        <route edges="333933989#0 668485027#2 668485032 307292431 994397868 4189987 666660155#0"/>
    </vehicle>
    <vehicle id="truck42" type="truck_truck" depart="1133.07" departLane="best">
        <route edges="668452812#0 668452812#1 543219906#0 668485023#0 668485023#1 838023770#1 232866966#3 75867438#0 75867438#1 785100395 489467563 489692411#1 305112616#1 305112616#3 333935385#1 666660153 666660154#1 572132657 673118337 307292432"/>
    </vehicle>
    <vehicle id="truck43" type="truck_truck" depart="1160.05" departLane="best">
        <route edges="666660152#3 333935384#2 668468055 489692411#1 305112616#1 305112616#3 333935385#1 666660153 666660154#1 572132657 673118337 307292432 666660156 4189988"/>
    </vehicle>
    <vehicle id="truck44" type="truck_truck" depart="1187.03" departLane="best">
        <route edges="668452813 668452812#0 668452812#1 543219906#0 668485023#0 668485023#1 838023770#1 232866966#3 232866970 232866954#0 232866954#1 138708547 4790252 61239094"/>
    </vehicle>
    <vehicle id="truck45" type="truck_truck" depart="1214.00" departLane="best">
        <route edges="668485050#1 668485040 673118336#1 333934000 333934001#1 668452814 668452809 571092944 572132660 668452813 668452812#0 668452812#1 543219906#0 668485023#0 668485023#1 668485027#2 668485032 307292431 994397868 4189987 666660155#0 666660155#2 305112618#0 666660152#1 666660152#3"/>
    </vehicle>
    <vehicle id="truck46" type="truck_truck" depart="1240.98" departLane="best">
        <route edges="333935384#2 668468055 785102259 489467557#0 489467557#1 232866954#0 232866954#1 979435612 232866966#0 183079037#1 979435613"/>
    </vehicle>
    <vehicle id="truck47" type="truck_truck" depart="1267.96" departLane="best" departSpeed="max">
        <route edges="333933989#0 838023770#1 232866966#3 232866970 232866954#0"/>
    </vehicle>
    <vehicle id="truck49" type="truck_truck" depart="1321.92" departLane="best">
        <route edges="668485023#1 668485027#2 668485032 307292431 994397868 4189987 666660155#0 666660155#2 305112618#0 666660152#1 666660152#3 333935384#2"/>
    </vehicle>
    <vehicle id="truck50" type="truck_truck" depart="1348.89" departLane="best">
        <route edges="668452812#1 543219906#0 668485023#0 668485023#1 838023770#1 232866966#3 232866970 232866954#0 232866954#1 138708547 4790252"/>
    </vehicle>
    <vehicle id="truck51" type="truck_truck" depart="1375.87" departLane="best">
        <route edges="572132660 668452813 668452812#0 668452812#1 543219906#0 668485023#0 668485023#1 838023770#1 232866966#3 75867438#0 75867438#1 785100395 489467563 489692411#1 305112616#1 305112616#3 333935385#1 666660153 666660154#1 572132657 673118337 994397867 74098875 205017220 675393890 61239093"/>
    </vehicle>
    <vehicle id="truck53" type="truck_truck" depart="1429.83" departLane="best">
        <route edges="489692411#1 305112616#1 305112616#3 333935385#1 666660153 666660154#1 572132657 673118337 307292432 666660156 4189988 49478489#0 49478489#1 668485027#2"/>
    </vehicle>
    <vehicle id="truck55" type="truck_truck" depart="1483.78" departLane="best">
        <route edges="333934001#1 668452814 489467563 785102259 489467557#0 489467557#1 232866954#0 232866954#1 138708547 4790252 61239094"/>
    </vehicle>
    <vehicle id="truck56" type="truck_truck" depart="1510.76" departLane="best">
        <route edges="4749666 49478489#0 49478489#1 668485027#2 668485032 307292431 994397868 4189987 666660155#0 666660155#2 305112618#0 666660152#1 666660152#3"/>
    </vehicle>
    <vehicle id="truck57" type="truck_truck" depart="1537.74" departLane="best">
        <route edges="666660153 666660154#1 572132657 673118337 307292432 666660156 4189988 49478489#0 49478489#1"/>
    </vehicle>
    <vehicle id="truck58" type="truck_truck" depart="1564.72" departLane="best">
        <route edges="4790247#1 307292406 232866966#0 183079037#1 668485050#1 668485040 673118336#1 333934000 333934001#1"/>
    </vehicle>
    <vehicle id="truck59" type="truck_truck" depart="1591.69" departLane="best">
        <route edges="668485027#2 668485032 307292431 994397868 4189987 666660155#0 666660155#2 305112618#0"/>
    </vehicle>
    <vehicle id="truck61" type="truck_truck" depart="1645.65" departLane="best" departSpeed="max">
        <route edges="307690644#0 668453151#0 785102259 489467557#0 489467557#1 232866954#0 232866954#1 138708547"/>
    </vehicle>
    <vehicle id="truck62" type="truck_truck" depart="1672.63" departLane="best">
        <route edges="668452814 489467563 489692411#1 305112616#1 305112616#3 333935385#1 666660153 666660154#1 572132657 673118337"/>
    </vehicle>
    <vehicle id="truck65" type="truck_truck" depart="1753.56" departLane="best" departSpeed="max">
        <route edges="333933989#0 838023770#1 232866966#3 75867438#0 75867438#1 785100395 489467563 785102259"/>
    </vehicle>
    <vehicle id="truck66" type="truck_truck" depart="1780.54" departLane="best" departSpeed="max">
        <route edges="333933989#0 838023770#1 232866966#3 75867438#0 75867438#1 785100395 668452809"/>
    </vehicle>
    <vehicle id="truck67" type="truck_truck" depart="1807.52" departLane="best">
        <route edges="668468055 785102259 489467557#0 489467557#1 232866954#0 232866954#1 138708547 4790252 61239094"/>
    </vehicle>
    <vehicle id="truck68" type="truck_truck" depart="1834.49" departLane="best" departSpeed="max">
        <route edges="333933989#0 668485027#2 668485032 307292431 994397868 4189987 666660155#0 666660155#2 305112618#0 666660152#1 666660152#3 333935384#2 668468055"/>
    </vehicle>
    <vehicle id="truck71" type="truck_truck" depart="1915.43" departLane="best">
        <route edges="673118337 307292432 666660156 4189988 49478489#0 49478489#1 668485050#1 668485040 673118336#1"/>
    </vehicle>
    <vehicle id="truck73" type="truck_truck" depart="1969.38" departLane="best">
        <route edges="4189988 49478489#0 49478489#1 668485050#1 668485040 673118336#1 333934000 333934001#1 668452814"/>
    </vehicle>
    <vehicle id="truck75" type="truck_truck" depart="2023.34" departLane="best">
        <route edges="305112618#0 666660152#1 666660152#3 333935384#2 668468055 489692411#1 305112616#1 305112616#3 333935385#1 666660153 666660154#1 572132657 673118337 307292432 666660156 4189988 49478489#0 49478489#1"/>
    </vehicle>
    <vehicle id="truck79" type="truck_truck" depart="2131.25" departLane="best">
        <route edges="117617939#1 75867438#1 785100395 489467563 785102259 489467557#0 489467557#1 232866954#0 232866954#1 138708547 4790252 61239094"/>
    </vehicle>
    <vehicle id="truck80" type="truck_truck" depart="2158.23" departLane="best">
        <route edges="994397868 4189987 666660155#0 666660155#2 305112618#0 666660152#1 666660152#3 333935384#2 668468055 489692410 489467547#1"/>
    </vehicle>
    <vehicle id="truck81" type="truck_truck" depart="2185.21" departLane="best">
        <route edges="666660153 666660154#1 572132657 673118337 307292432 666660156 4189988 49478489#0 49478489#1 668485050#1"/>
    </vehicle>
    <vehicle id="truck82" type="truck_truck" depart="2212.19" departLane="best">
        <route edges="305112616#1 305112616#3 333935385#1 666660153 666660154#1 572132657 673118337 307292432 666660156 4189988 49478489#0 49478489#1 838023770#1 232866966#3 232866970 232866954#0 232866954#1 138708547"/>
    </vehicle>
    <vehicle id="truck84" type="truck_truck" depart="2266.14" departLane="best">
        <route edges="4749666 49478489#0 49478489#1 838023770#1 232866966#3 75867438#0 75867438#1 785100395 489467547#1"/>
    </vehicle>
    <vehicle id="truck87" type="truck_truck" depart="2347.07" departLane="best" departSpeed="max">
        <route edges="333933989#0 838023770#1 232866966#3 75867438#0 75867438#1"/>
    </vehicle>
    <vehicle id="truck88" type="truck_truck" depart="2374.05" departLane="best" departSpeed="max">
        <route edges="333933989#0 838023770#1 232866966#3 75867438#0 75867438#1 785100395 489467563 785102259"/>
    </vehicle>
    <vehicle id="truck91" type="truck_truck" depart="2454.99" departLane="best">
        <route edges="666660156 4189988 49478489#0 49478489#1 838023770#1 232866966#3 75867438#0 75867438#1 785100395 668452809 571092944 572132660 668452813 668452812#0"/>
    </vehicle>
    <vehicle id="truck94" type="truck_truck" depart="2535.92" departLane="best" departSpeed="max">
        <route edges="307690644#0 668453151#0 785102259 489467557#0 489467557#1 232866954#0 232866954#1 979435612 232866966#0"/>
    </vehicle>
    <vehicle id="truck97" type="truck_truck" depart="2616.85" departLane="best">
        <route edges="488680655#0 488680655#1 488680655#2 307292431 994397868 4189987 666660155#0 666660155#2 305112618#0 666660152#1 666660152#3 333935384#2 668468055 489692411#1"/>
    </vehicle>
    <vehicle id="truck99" type="truck_truck" depart="2670.81" departLane="best">
        <route edges="668485023#1 668485027#2 668485032 307292431 994397868 4189987 666660155#0 666660155#2 305112618#0 666660152#1 666660152#3 333935384#2"/>
    </vehicle>
    <vehicle id="truck100" type="truck_truck" depart="2697.79" departLane="best">
        <route edges="489467563 489692411#1 305112616#1 305112616#3 333935385#1 666660153 666660154#1 572132657 673118337 307292432 666660156 4189988 49478489#0"/>
    </vehicle>
    <vehicle id="truck103" type="truck_truck" depart="2778.72" departLane="best">
        <route edges="668452809 571092944 572132660 668452813 668452812#0 668452812#1 543219906#0 668485023#0 668485023#1 838023770#1 232866966#3 75867438#0 75867438#1 785100395 489467563 489692411#1 305112616#1 305112616#3 333935385#1 666660153 666660154#1 572132657 673118337 307292432 666660156 4189988 49478489#0"/>
    </vehicle>
    <vehicle id="truck104" type="truck_truck" depart="2805.70" departLane="best">
        <route edges="666660153 666660154#1 572132657 673118337 307292432 666660156 4189988 49478489#0 49478489#1 979435613"/>
    </vehicle>
    <vehicle id="truck105" type="truck_truck" depart="2832.68" departLane="best">
        <route edges="668485050#1 668485040 673118336#1 333934000 333934001#1 668452814 668452809 571092944 572132660 668452813 668452812#0 668452812#1 543219906#0 668485023#0 668485023#1 668485027#2 668485032 307292431 994397868 4189987 666660155#0 666660155#2 305112618#0 666660152#1 666660152#3"/>
    </vehicle>
    <vehicle id="truck106" type="truck_truck" depart="2859.65" departLane="best">
        <route edges="4189987 666660155#0 666660155#2 305112618#0 666660152#1 666660152#3 333935384#2 668468055"/>
    </vehicle>
    <vehicle id="truck108" type="truck_truck" depart="2913.61" departLane="best">
        <route edges="668453151#0 489692411#1 305112616#1 305112616#3 333935385#1 666660153 666660154#1 572132657 673118337 307292432 666660156"/>
    </vehicle>
    <vehicle id="truck109" type="truck_truck" depart="2940.59" departLane="best">
        <route edges="668453151#0 489692411#1 305112616#1 305112616#3 333935385#1 666660153 666660154#1 572132657 673118337 307292432"/>
    </vehicle>
    <vehicle id="truck110" type="truck_truck" depart="2967.57" departLane="best">
        <route edges="4790247#0 4790247#1 488680655#0 488680655#1 488680655#2 307292431 994397868 4189987 666660155#0 666660155#2 305112618#0 666660152#1 666660152#3 333935384#2 668468055"/>
    </vehicle>
    <vehicle id="truck112" type="truck_truck" depart="3021.52" departLane="best">
        <route edges="572132660 668452813 668452812#0 668452812#1 543219906#0 668485023#0 668485023#1 838023770#1 232866966#3 75867438#0 75867438#1 785100395 489467563 489692411#1 305112616#1 305112616#3 333935385#1"/>
    </vehicle>
    <vehicle id="truck113" type="truck_truck" depart="3048.50" departLane="best">
        <route edges="668452812#0 668452812#1 543219906#0 668485023#0 668485023#1 838023770#1 232866966#3 75867438#0 75867438#1 785100395 489467563 489692411#1 305112616#1 305112616#3 333935385#1 666660153 666660154#1 572132657 673118337 994397867 74098875 205017220 675393890 61239093"/>
    </vehicle>
    <vehicle id="truck114" type="truck_truck" depart="3075.48" departLane="best">
        <route edges="49478489#0 49478489#1 838023770#1 232866966#3 75867438#0 75867438#1 785100395 489467547#1"/>
    </vehicle>
    <vehicle id="truck115" type="truck_truck" depart="3102.45" departLane="best">
        <route edges="571092944 572132660 668452813 668452812#0 668452812#1 543219906#0 668485023#0 668485023#1 668485027#2 668485032 307292431 994397868"/>
    </vehicle>
    <vehicle id="truck116" type="truck_truck" depart="3129.43" departLane="best">
        <route edges="488680655#2 307292431 994397868 4189987 666660155#0 666660155#2 305112618#0 666660152#1 666660152#3 333935384#2 668468055 489692411#1 305112616#1"/>
    </vehicle>
    <vehicle id="truck118" type="truck_truck" depart="3183.39" departLane="best">
        <route edges="543219906#0 668485023#0 668485023#1 838023770#1 232866966#3 75867438#0 75867438#1 785100395 489467563 489692411#1 305112616#1 305112616#3 333935385#1"/>
    </vehicle>
    <vehicle id="truck119" type="truck_truck" depart="3210.37" departLane="best">
        <route edges="668485032 307292431 994397868 4189987 666660155#0 666660155#2 305112618#0 666660152#1 666660152#3 333935384#2 668468055 489692410 489467547#1"/>
    </vehicle>
    <vehicle id="truck122" type="truck_truck" depart="3291.30" departLane="best">
        <route edges="4189988 49478489#0 49478489#1 668485027#2 668485032 307292431 994397868 4189987 666660155#0 666660155#2 305112618#0 666660152#1 666660152#3 333935384#2 668468055"/>
    </vehicle>
    <vehicle id="truck124" type="truck_truck" depart="3345.26" departLane="best">
        <route edges="307292431 994397868 4189987 666660155#0 666660155#2 305112618#0 666660152#1 666660152#3 333935384#2 668468055 489692411#1"/>
    </vehicle>
    <vehicle id="truck125" type="truck_truck" depart="3372.23" departLane="best" departSpeed="max">
        <route edges="333933989#0 838023770#1 232866966#3 75867438#0 75867438#1 785100395 489467563 785102259"/>
    </vehicle>
    <vehicle id="truck126" type="truck_truck" depart="3399.21" departLane="best">
        <route edges="543219906#0 668485023#0 668485023#1 668485027#2 668485032 307292431 994397868 4189987 666660155#0 666660155#2 305112618#0 666660152#1 666660152#3"/>
    </vehicle>
    <vehicle id="truck128" type="truck_truck" depart="3453.17" departLane="best" departSpeed="max">
        <route edges="333933989#0 668485027#2 668485032 307292431 994397868 4189987 666660155#0 666660155#2 305112618#0 666660152#1"/>
    </vehicle>
    <vehicle id="truck129" type="truck_truck" depart="3480.14" departLane="best">
        <route edges="666660155#2 305112618#0 666660152#1 666660152#3 333935384#2 668468055 785102259 489467557#0 489467557#1 232866954#0 232866954#1 979435612 232866966#0 183079037#1 668485050#1 668485040"/>
    </vehicle>
    <vehicle id="truck130" type="truck_truck" depart="3507.12" departLane="best">
        <route edges="489467557#0 489467557#1 232866954#0 232866954#1 979435612 232866966#0 183079037#1 979435613"/>
    </vehicle>
    <vehicle id="truck131" type="truck_truck" depart="3534.10" departLane="best">
        <route edges="666660152#1 666660152#3 333935384#2 668468055 785102259 489467557#0 489467557#1 232866954#0 232866954#1 979435612 232866966#0 183079037#1 979435613"/>
    </vehicle>
    <vehicle id="truck132" type="truck_truck" depart="3561.08" departLane="best">
        <route edges="4790247#0 4790247#1 488680655#0 488680655#1 488680655#2 307292431 994397868 4189987 666660155#0 666660155#2 305112618#0 666660152#1 666660152#3"/>
    </vehicle>
    <vehicle id="truck133" type="truck_truck" depart="3588.06" departLane="best">
        <route edges="668452813 668452812#0 668452812#1 543219906#0 668485023#0 668485023#1 838023770#1 232866966#3 75867438#0 75867438#1 785100395 489467563 489692411#1 305112616#1 305112616#3 333935385#1 666660153 666660154#1 572132657 673118337 994397867 74098875 205017220"/>
    </vehicle>
</routes>
