<?xml version="1.0" encoding="UTF-8"?>

<!-- generated on 2022-07-15 12:15:20.695425 by randomTrips.py UNKNOWN
<configuration>
    <additional-files value="osm_stops.add.xml,osm_pt.rou.xml"/>
    <end value="3600"/>
    <net-file value="osm.net.xml"/>
    <period value="10.900546"/>
    <persontrips value="True"/>
    <route-file value="osm.pedestrian.rou.xml"/>
    <trip-attributes value="modes=&quot;public&quot;"/>
    <output-trip-file value="osm.pedestrian.trips.xml"/>
    <prefix value="ped"/>
    <vehicle-class value="pedestrian"/>
    <persontrip.walk-opposite-factor value="0.8"/>
</configuration>
-->

<routes xmlns:xsi="http://www.w3.org/2001/XMLSchema-instance" xsi:noNamespaceSchemaLocation="http://sumo.dlr.de/xsd/routes_file.xsd">
    <vType id="ped_pedestrian" vClass="pedestrian"/>
    <person id="ped0" depart="0.00" type="ped_pedestrian">
        <personTrip from="657446604" to="-232866961#0" modes="public"/>
    </person>
    <person id="ped1" depart="10.90" type="ped_pedestrian">
        <personTrip from="-701275527#2" to="-673257109#0" modes="public"/>
    </person>
    <person id="ped2" depart="21.80" type="ped_pedestrian">
        <personTrip from="693124517#0" to="673071136#0" modes="public"/>
    </person>
    <person id="ped3" depart="32.70" type="ped_pedestrian">
        <personTrip from="775633683#1" to="-432521766#4" modes="public"/>
    </person>
    <person id="ped4" depart="43.60" type="ped_pedestrian">
        <personTrip from="-775633688#3" to="-232866961#3" modes="public"/>
    </person>
    <person id="ped5" depart="54.50" type="ped_pedestrian">
        <personTrip from="-673255156" to="232850423#5" modes="public"/>
    </person>
    <person id="ped6" depart="65.40" type="ped_pedestrian">
        <personTrip from="-232866961#1" to="-673076840#1" modes="public"/>
    </person>
    <person id="ped7" depart="76.30" type="ped_pedestrian">
        <personTrip from="673063373#2" to="335727782" modes="public"/>
    </person>
    <person id="ped8" depart="87.20" type="ped_pedestrian">
        <personTrip from="-673257108" to="444565299#2" modes="public"/>
    </person>
    <person id="ped9" depart="98.10" type="ped_pedestrian">
        <personTrip from="713194426#0" to="-232152854#3" modes="public"/>
    </person>
    <person id="ped10" depart="109.01" type="ped_pedestrian">
        <personTrip from="713194424#0" to="673076840#1" modes="public"/>
    </person>
    <person id="ped11" depart="119.91" type="ped_pedestrian">
        <personTrip from="-768639727#0" to="-673063374#1" modes="public"/>
    </person>
    <person id="ped12" depart="130.81" type="ped_pedestrian">
        <personTrip from="781757781#1" to="-768639719" modes="public"/>
    </person>
    <person id="ped13" depart="141.71" type="ped_pedestrian">
        <personTrip from="-444565298#0" to="-444565299#0" modes="public"/>
    </person>
    <person id="ped14" depart="152.61" type="ped_pedestrian">
        <personTrip from="775633668#0" to="474953693#4" modes="public"/>
    </person>
    <person id="ped15" depart="163.51" type="ped_pedestrian">
        <personTrip from="713194425" to="678149258#1" modes="public"/>
    </person>
    <person id="ped16" depart="174.41" type="ped_pedestrian">
        <personTrip from="232866961#9" to="944879877#2" modes="public"/>
    </person>
    <person id="ped17" depart="185.31" type="ped_pedestrian">
        <personTrip from="-775633678#3" to="341460011#0" modes="public"/>
    </person>
    <person id="ped18" depart="196.21" type="ped_pedestrian">
        <personTrip from="768639727#1" to="474953696#0" modes="public"/>
    </person>
    <person id="ped19" depart="207.11" type="ped_pedestrian">
        <personTrip from="775633678#2" to="432521766#3" modes="public"/>
    </person>
    <person id="ped20" depart="218.01" type="ped_pedestrian">
        <personTrip from="673076840#4" to="-232885763" modes="public"/>
    </person>
    <person id="ped21" depart="228.91" type="ped_pedestrian">
        <personTrip from="-673257112" to="-701455101#1" modes="public"/>
    </person>
    <person id="ped22" depart="239.81" type="ped_pedestrian">
        <personTrip from="-432521766#0" to="-673257741#1" modes="public"/>
    </person>
    <person id="ped23" depart="250.71" type="ped_pedestrian">
        <personTrip from="-444565300#0" to="-701308881" modes="public"/>
    </person>
    <person id="ped24" depart="261.61" type="ped_pedestrian">
        <personTrip from="653131059#0" to="-775633668#1" modes="public"/>
    </person>
    <person id="ped25" depart="272.51" type="ped_pedestrian">
        <personTrip from="-775633670" to="-673076844" modes="public"/>
    </person>
    <person id="ped26" depart="283.41" type="ped_pedestrian">
        <personTrip from="-700995753#3" to="781757769#1" modes="public"/>
    </person>
    <person id="ped27" depart="294.31" type="ped_pedestrian">
        <personTrip from="673063373#1" to="474953695#0" modes="public"/>
    </person>
    <person id="ped28" depart="305.22" type="ped_pedestrian">
        <personTrip from="-673071134#4" to="678149258#1" modes="public"/>
    </person>
    <person id="ped29" depart="316.12" type="ped_pedestrian">
        <personTrip from="-673071134#0" to="-775633678#3" modes="public"/>
    </person>
    <person id="ped30" depart="327.02" type="ped_pedestrian">
        <personTrip from="944883176#0" to="657446604" modes="public"/>
    </person>
    <person id="ped31" depart="337.92" type="ped_pedestrian">
        <personTrip from="341460011#3" to="673071138" modes="public"/>
    </person>
    <person id="ped32" depart="348.82" type="ped_pedestrian">
        <personTrip from="775633664#9" to="701455101#2" modes="public"/>
    </person>
    <person id="ped33" depart="359.72" type="ped_pedestrian">
        <personTrip from="-673257112" to="-232866961#4" modes="public"/>
    </person>
    <person id="ped34" depart="370.62" type="ped_pedestrian">
        <personTrip from="-713194424#1" to="-700995753#3" modes="public"/>
    </person>
    <person id="ped35" depart="381.52" type="ped_pedestrian">
        <personTrip from="-673251526" to="781757772" modes="public"/>
    </person>
    <person id="ped36" depart="392.42" type="ped_pedestrian">
        <personTrip from="775633682#0" to="-713194424#1" modes="public"/>
    </person>
    <person id="ped37" depart="403.32" type="ped_pedestrian">
        <personTrip from="673063374#1" to="-775633682#2" modes="public"/>
    </person>
    <person id="ped38" depart="414.22" type="ped_pedestrian">
        <personTrip from="777424812" to="-781757774#0" modes="public"/>
    </person>
    <person id="ped39" depart="425.12" type="ped_pedestrian">
        <personTrip from="-700995753#2" to="-678154033#1" modes="public"/>
    </person>
    <person id="ped40" depart="436.02" type="ped_pedestrian">
        <personTrip from="341460013#1" to="-700995753#1" modes="public"/>
    </person>
    <person id="ped41" depart="446.92" type="ped_pedestrian">
        <personTrip from="444565298#1" to="775633684#2" modes="public"/>
    </person>
    <person id="ped42" depart="457.82" type="ped_pedestrian">
        <personTrip from="-775633682#5" to="-673255156" modes="public"/>
    </person>
    <person id="ped43" depart="468.72" type="ped_pedestrian">
        <personTrip from="944883177#2" to="232850646" modes="public"/>
    </person>
    <person id="ped44" depart="479.62" type="ped_pedestrian">
        <personTrip from="-444565298#0" to="-307690644#1" modes="public"/>
    </person>
    <person id="ped45" depart="490.52" type="ped_pedestrian">
        <personTrip from="-474953693#2" to="489467547#1" modes="public"/>
    </person>
    <person id="ped46" depart="501.43" type="ped_pedestrian">
        <personTrip from="702966193#1" to="-775633688#4" modes="public"/>
    </person>
    <person id="ped47" depart="512.33" type="ped_pedestrian">
        <personTrip from="-341460013#0" to="-775633679#0" modes="public"/>
    </person>
    <person id="ped48" depart="523.23" type="ped_pedestrian">
        <personTrip from="944883177#2" to="232866961#4" modes="public"/>
    </person>
    <person id="ped49" depart="534.13" type="ped_pedestrian">
        <personTrip from="944879877#1" to="775633678#2" modes="public"/>
    </person>
    <person id="ped50" depart="545.03" type="ped_pedestrian">
        <personTrip from="-232850423#1" to="673257112" modes="public"/>
    </person>
    <person id="ped51" depart="555.93" type="ped_pedestrian">
        <personTrip from="673071137#1" to="232866961#9" modes="public"/>
    </person>
    <person id="ped52" depart="566.83" type="ped_pedestrian">
        <personTrip from="-700995753#3" to="657446604" modes="public"/>
    </person>
    <person id="ped53" depart="577.73" type="ped_pedestrian">
        <personTrip from="-474953693#3" to="-777424817#1" modes="public"/>
    </person>
    <person id="ped54" depart="588.63" type="ped_pedestrian">
        <personTrip from="-781757773#2" to="781757774#1" modes="public"/>
    </person>
    <person id="ped55" depart="599.53" type="ped_pedestrian">
        <personTrip from="775633682#0" to="-700995753#1" modes="public"/>
    </person>
    <person id="ped56" depart="610.43" type="ped_pedestrian">
        <personTrip from="232850423#3" to="-673071137#0" modes="public"/>
    </person>
    <person id="ped57" depart="621.33" type="ped_pedestrian">
        <personTrip from="775633691#1" to="775633679#2" modes="public"/>
    </person>
    <person id="ped58" depart="632.23" type="ped_pedestrian">
        <personTrip from="-701455101#5" to="653131059#1" modes="public"/>
    </person>
    <person id="ped59" depart="643.13" type="ped_pedestrian">
        <personTrip from="474953695#0" to="-673063374#0" modes="public"/>
    </person>
    <person id="ped60" depart="654.03" type="ped_pedestrian">
        <personTrip from="701275528" to="232866967" modes="public"/>
    </person>
    <person id="ped61" depart="664.93" type="ped_pedestrian">
        <personTrip from="701455101#4" to="232866961#6" modes="public"/>
    </person>
    <person id="ped62" depart="675.83" type="ped_pedestrian">
        <personTrip from="-1009372632" to="-713194427" modes="public"/>
    </person>
    <person id="ped63" depart="686.73" type="ped_pedestrian">
        <personTrip from="-232866956#0" to="777424825#0" modes="public"/>
    </person>
    <person id="ped64" depart="697.63" type="ped_pedestrian">
        <personTrip from="775633682#1" to="775633663" modes="public"/>
    </person>
    <person id="ped65" depart="708.54" type="ped_pedestrian">
        <personTrip from="-707537512#0" to="-341460011#1" modes="public"/>
    </person>
    <person id="ped66" depart="719.44" type="ped_pedestrian">
        <personTrip from="775633682#1" to="781757773#1" modes="public"/>
    </person>
    <person id="ped67" depart="730.34" type="ped_pedestrian">
        <personTrip from="-432521766#3" to="232848622#2" modes="public"/>
    </person>
    <person id="ped68" depart="741.24" type="ped_pedestrian">
        <personTrip from="-341460013#2" to="701275527#2" modes="public"/>
    </person>
    <person id="ped69" depart="752.14" type="ped_pedestrian">
        <personTrip from="701312035" to="-489467547#1" modes="public"/>
    </person>
    <person id="ped70" depart="763.04" type="ped_pedestrian">
        <personTrip from="231821601#2" to="341460010#1" modes="public"/>
    </person>
    <person id="ped71" depart="773.94" type="ped_pedestrian">
        <personTrip from="-700995753#2" to="775633681#0" modes="public"/>
    </person>
    <person id="ped72" depart="784.84" type="ped_pedestrian">
        <personTrip from="-775633688#4" to="-673251526" modes="public"/>
    </person>
    <person id="ped73" depart="795.74" type="ped_pedestrian">
        <personTrip from="232866967" to="678149258#1" modes="public"/>
    </person>
    <person id="ped74" depart="806.64" type="ped_pedestrian">
        <personTrip from="-673076840#2" to="-707537512#2" modes="public"/>
    </person>
    <person id="ped75" depart="817.54" type="ped_pedestrian">
        <personTrip from="944883177#1" to="673063373#2" modes="public"/>
    </person>
    <person id="ped76" depart="828.44" type="ped_pedestrian">
        <personTrip from="-777424817#2" to="232866961#0" modes="public"/>
    </person>
    <person id="ped77" depart="839.34" type="ped_pedestrian">
        <personTrip from="-474953695#3" to="-673257109#1" modes="public"/>
    </person>
    <person id="ped78" depart="850.24" type="ped_pedestrian">
        <personTrip from="-768639722" to="444565299#0" modes="public"/>
    </person>
    <person id="ped79" depart="861.14" type="ped_pedestrian">
        <personTrip from="-673257741#0" to="-673257108" modes="public"/>
    </person>
    <person id="ped80" depart="872.04" type="ped_pedestrian">
        <personTrip from="-344157304#0" to="545142128#1" modes="public"/>
    </person>
    <person id="ped81" depart="882.94" type="ped_pedestrian">
        <personTrip from="-673257112" to="775633688#4" modes="public"/>
    </person>
    <person id="ped82" depart="893.84" type="ped_pedestrian">
        <personTrip from="775633678#1" to="-344157304#0" modes="public"/>
    </person>
    <person id="ped83" depart="904.75" type="ped_pedestrian">
        <personTrip from="-678149258#0" to="673071134#3" modes="public"/>
    </person>
    <person id="ped84" depart="915.65" type="ped_pedestrian">
        <personTrip from="-673253658" to="-489467557#1" modes="public"/>
    </person>
    <person id="ped85" depart="926.55" type="ped_pedestrian">
        <personTrip from="781757769#1" to="350991780#1" modes="public"/>
    </person>
    <person id="ped86" depart="937.45" type="ped_pedestrian">
        <personTrip from="231821601#1" to="701455101#6" modes="public"/>
    </person>
    <person id="ped87" depart="948.35" type="ped_pedestrian">
        <personTrip from="713194425" to="-673071140#1" modes="public"/>
    </person>
    <person id="ped88" depart="959.25" type="ped_pedestrian">
        <personTrip from="-444565299#0" to="-777424812" modes="public"/>
    </person>
    <person id="ped89" depart="970.15" type="ped_pedestrian">
        <personTrip from="-775633688#4" to="210337581#0" modes="public"/>
    </person>
    <person id="ped90" depart="981.05" type="ped_pedestrian">
        <personTrip from="678149258#1" to="673071135" modes="public"/>
    </person>
    <person id="ped91" depart="991.95" type="ped_pedestrian">
        <personTrip from="944880507" to="-444565299#2" modes="public"/>
    </person>
    <person id="ped92" depart="1002.85" type="ped_pedestrian">
        <personTrip from="-775633682#6" to="-768639722" modes="public"/>
    </person>
    <person id="ped93" depart="1013.75" type="ped_pedestrian">
        <personTrip from="775633678#2" to="-681033853" modes="public"/>
    </person>
    <person id="ped94" depart="1024.65" type="ped_pedestrian">
        <personTrip from="-673071140#1" to="-777424825#1" modes="public"/>
    </person>
    <person id="ped95" depart="1035.55" type="ped_pedestrian">
        <personTrip from="-775633688#3" to="-701308882" modes="public"/>
    </person>
    <person id="ped96" depart="1046.45" type="ped_pedestrian">
        <personTrip from="-693124517#0" to="777424817#3" modes="public"/>
    </person>
    <person id="ped97" depart="1057.35" type="ped_pedestrian">
        <personTrip from="-777424817#5" to="775633678#2" modes="public"/>
    </person>
    <person id="ped98" depart="1068.25" type="ped_pedestrian">
        <personTrip from="341460010#1" to="-335727782" modes="public"/>
    </person>
    <person id="ped99" depart="1079.15" type="ped_pedestrian">
        <personTrip from="992711567" to="775633664#3" modes="public"/>
    </person>
    <person id="ped100" depart="1090.05" type="ped_pedestrian">
        <personTrip from="939129752" to="777424817#5" modes="public"/>
    </person>
    <person id="ped101" depart="1100.96" type="ped_pedestrian">
        <personTrip from="775633668#1" to="-673071134#1" modes="public"/>
    </person>
    <person id="ped102" depart="1111.86" type="ped_pedestrian">
        <personTrip from="232848622#2" to="-673253658" modes="public"/>
    </person>
    <person id="ped103" depart="1122.76" type="ped_pedestrian">
        <personTrip from="-775633682#6" to="-341460011#1" modes="public"/>
    </person>
    <person id="ped104" depart="1133.66" type="ped_pedestrian">
        <personTrip from="-775633678#3" to="944880512" modes="public"/>
    </person>
    <person id="ped105" depart="1144.56" type="ped_pedestrian">
        <personTrip from="-700995753#2" to="701455101#6" modes="public"/>
    </person>
    <person id="ped106" depart="1155.46" type="ped_pedestrian">
        <personTrip from="-781757773#2" to="-775633688#4" modes="public"/>
    </person>
    <person id="ped107" depart="1166.36" type="ped_pedestrian">
        <personTrip from="781757781#1" to="944883177#1" modes="public"/>
    </person>
    <person id="ped108" depart="1177.26" type="ped_pedestrian">
        <personTrip from="341460011#3" to="673257109#1" modes="public"/>
    </person>
    <person id="ped109" depart="1188.16" type="ped_pedestrian">
        <personTrip from="-673063374#1" to="-701455101#4" modes="public"/>
    </person>
    <person id="ped110" depart="1199.06" type="ped_pedestrian">
        <personTrip from="939129752" to="432521766#4" modes="public"/>
    </person>
    <person id="ped111" depart="1209.96" type="ped_pedestrian">
        <personTrip from="307690644#0" to="700995753#1" modes="public"/>
    </person>
    <person id="ped112" depart="1220.86" type="ped_pedestrian">
        <personTrip from="-341460011#1" to="444565298#0" modes="public"/>
    </person>
    <person id="ped113" depart="1231.76" type="ped_pedestrian">
        <personTrip from="232850423#4" to="775633669#1" modes="public"/>
    </person>
    <person id="ped114" depart="1242.66" type="ped_pedestrian">
        <personTrip from="-673063374#2" to="781757781#3" modes="public"/>
    </person>
    <person id="ped115" depart="1253.56" type="ped_pedestrian">
        <personTrip from="-432521766#0" to="-673071139#1" modes="public"/>
    </person>
    <person id="ped116" depart="1264.46" type="ped_pedestrian">
        <personTrip from="444565300#2" to="673071136#0" modes="public"/>
    </person>
    <person id="ped117" depart="1275.36" type="ped_pedestrian">
        <personTrip from="-673257741#4" to="-474953695#2" modes="public"/>
    </person>
    <person id="ped118" depart="1286.26" type="ped_pedestrian">
        <personTrip from="775633683#0" to="-678154033#1" modes="public"/>
    </person>
    <person id="ped119" depart="1297.16" type="ped_pedestrian">
        <personTrip from="444565300#1" to="474953696#0" modes="public"/>
    </person>
    <person id="ped120" depart="1308.07" type="ped_pedestrian">
        <personTrip from="-775633688#2" to="444565298#0" modes="public"/>
    </person>
    <person id="ped121" depart="1318.97" type="ped_pedestrian">
        <personTrip from="232866961#10" to="781757769#1" modes="public"/>
    </person>
    <person id="ped122" depart="1329.87" type="ped_pedestrian">
        <personTrip from="-673076840#3" to="673257109#0" modes="public"/>
    </person>
    <person id="ped123" depart="1340.77" type="ped_pedestrian">
        <personTrip from="-678149258#1" to="-775633682#2" modes="public"/>
    </person>
    <person id="ped124" depart="1351.67" type="ped_pedestrian">
        <personTrip from="673071134#4" to="-701455101#6" modes="public"/>
    </person>
    <person id="ped125" depart="1362.57" type="ped_pedestrian">
        <personTrip from="-713194424#1" to="700995753#3" modes="public"/>
    </person>
    <person id="ped126" depart="1373.47" type="ped_pedestrian">
        <personTrip from="-347384262" to="-781757774#0" modes="public"/>
    </person>
    <person id="ped127" depart="1384.37" type="ped_pedestrian">
        <personTrip from="992711567" to="944883177#2" modes="public"/>
    </person>
    <person id="ped128" depart="1395.27" type="ped_pedestrian">
        <personTrip from="-347384262" to="-673253658" modes="public"/>
    </person>
    <person id="ped129" depart="1406.17" type="ped_pedestrian">
        <personTrip from="-700995753#2" to="781757769#0" modes="public"/>
    </person>
    <person id="ped130" depart="1417.07" type="ped_pedestrian">
        <personTrip from="775633682#2" to="775633682#1" modes="public"/>
    </person>
    <person id="ped131" depart="1427.97" type="ped_pedestrian">
        <personTrip from="-775633670" to="-673063374#2" modes="public"/>
    </person>
    <person id="ped132" depart="1438.87" type="ped_pedestrian">
        <personTrip from="775633664#0" to="673076840#4" modes="public"/>
    </person>
    <person id="ped133" depart="1449.77" type="ped_pedestrian">
        <personTrip from="474953695#1" to="944880512" modes="public"/>
    </person>
    <person id="ped134" depart="1460.67" type="ped_pedestrian">
        <personTrip from="673063374#0" to="-232152854#3" modes="public"/>
    </person>
    <person id="ped135" depart="1471.57" type="ped_pedestrian">
        <personTrip from="753613763#1" to="-701455101#5" modes="public"/>
    </person>
    <person id="ped136" depart="1482.47" type="ped_pedestrian">
        <personTrip from="673071134#0" to="781757770" modes="public"/>
    </person>
    <person id="ped137" depart="1493.37" type="ped_pedestrian">
        <personTrip from="-545142128#0" to="-474953695#0" modes="public"/>
    </person>
    <person id="ped138" depart="1504.28" type="ped_pedestrian">
        <personTrip from="-474953686#1" to="341460011#1" modes="public"/>
    </person>
    <person id="ped139" depart="1515.18" type="ped_pedestrian">
        <personTrip from="-701275527#0" to="474953693#4" modes="public"/>
    </person>
    <person id="ped140" depart="1526.08" type="ped_pedestrian">
        <personTrip from="673257109#1" to="-673076840#3" modes="public"/>
    </person>
    <person id="ped141" depart="1536.98" type="ped_pedestrian">
        <personTrip from="652807105" to="-700995753#2" modes="public"/>
    </person>
    <person id="ped142" depart="1547.88" type="ped_pedestrian">
        <personTrip from="232848622#3" to="775633688#4" modes="public"/>
    </person>
    <person id="ped143" depart="1558.78" type="ped_pedestrian">
        <personTrip from="775633668#0" to="-444565298#0" modes="public"/>
    </person>
    <person id="ped144" depart="1569.68" type="ped_pedestrian">
        <personTrip from="-775633688#4" to="-701308881" modes="public"/>
    </person>
    <person id="ped145" depart="1580.58" type="ped_pedestrian">
        <personTrip from="-232152854#0" to="701455101#0" modes="public"/>
    </person>
    <person id="ped146" depart="1591.48" type="ped_pedestrian">
        <personTrip from="653131059#0" to="-700995753#1" modes="public"/>
    </person>
    <person id="ped147" depart="1602.38" type="ped_pedestrian">
        <personTrip from="700995751#0" to="341460011#0" modes="public"/>
    </person>
    <person id="ped148" depart="1613.28" type="ped_pedestrian">
        <personTrip from="-775633691#0" to="-232850423#0" modes="public"/>
    </person>
    <person id="ped149" depart="1624.18" type="ped_pedestrian">
        <personTrip from="-350991780#0" to="775633682#4" modes="public"/>
    </person>
    <person id="ped150" depart="1635.08" type="ped_pedestrian">
        <personTrip from="775633688#3" to="335727782" modes="public"/>
    </person>
    <person id="ped151" depart="1645.98" type="ped_pedestrian">
        <personTrip from="775633664#0" to="444565298#0" modes="public"/>
    </person>
    <person id="ped152" depart="1656.88" type="ped_pedestrian">
        <personTrip from="-673063373#0" to="-489467547#1" modes="public"/>
    </person>
    <person id="ped153" depart="1667.78" type="ped_pedestrian">
        <personTrip from="-707537512#1" to="775633688#1" modes="public"/>
    </person>
    <person id="ped154" depart="1678.68" type="ped_pedestrian">
        <personTrip from="707537512#0" to="775633678#1" modes="public"/>
    </person>
    <person id="ped155" depart="1689.58" type="ped_pedestrian">
        <personTrip from="775633688#1" to="-673076844" modes="public"/>
    </person>
    <person id="ped156" depart="1700.49" type="ped_pedestrian">
        <personTrip from="-693124517#0" to="-444565300#1" modes="public"/>
    </person>
    <person id="ped157" depart="1711.39" type="ped_pedestrian">
        <personTrip from="701455101#4" to="775633682#5" modes="public"/>
    </person>
    <person id="ped158" depart="1722.29" type="ped_pedestrian">
        <personTrip from="-775633683#1" to="474953696#1" modes="public"/>
    </person>
    <person id="ped159" depart="1733.19" type="ped_pedestrian">
        <personTrip from="-673063374#1" to="777424825#0" modes="public"/>
    </person>
    <person id="ped160" depart="1744.09" type="ped_pedestrian">
        <personTrip from="775633678#3" to="944879878#1" modes="public"/>
    </person>
    <person id="ped161" depart="1754.99" type="ped_pedestrian">
        <personTrip from="713194426#2" to="775633682#2" modes="public"/>
    </person>
    <person id="ped162" depart="1765.89" type="ped_pedestrian">
        <personTrip from="-232866961#0" to="693124517#0" modes="public"/>
    </person>
    <person id="ped163" depart="1776.79" type="ped_pedestrian">
        <personTrip from="-753613765#1" to="777424825#1" modes="public"/>
    </person>
    <person id="ped164" depart="1787.69" type="ped_pedestrian">
        <personTrip from="713193419" to="775633678#3" modes="public"/>
    </person>
    <person id="ped165" depart="1798.59" type="ped_pedestrian">
        <personTrip from="713194426#2" to="-700995753#3" modes="public"/>
    </person>
    <person id="ped166" depart="1809.49" type="ped_pedestrian">
        <personTrip from="701455101#9" to="-474953693#2" modes="public"/>
    </person>
    <person id="ped167" depart="1820.39" type="ped_pedestrian">
        <personTrip from="775633681#0" to="775633678#0" modes="public"/>
    </person>
    <person id="ped168" depart="1831.29" type="ped_pedestrian">
        <personTrip from="-673257109#0" to="753613763#1" modes="public"/>
    </person>
    <person id="ped169" depart="1842.19" type="ped_pedestrian">
        <personTrip from="-781757774#1" to="-701455101#9" modes="public"/>
    </person>
    <person id="ped170" depart="1853.09" type="ped_pedestrian">
        <personTrip from="702966194" to="-673257110" modes="public"/>
    </person>
    <person id="ped171" depart="1863.99" type="ped_pedestrian">
        <personTrip from="-232866961#0" to="-673075701#0" modes="public"/>
    </person>
    <person id="ped172" depart="1874.89" type="ped_pedestrian">
        <personTrip from="-753613763#1" to="775633678#3" modes="public"/>
    </person>
    <person id="ped173" depart="1885.79" type="ped_pedestrian">
        <personTrip from="939129751" to="-701308882" modes="public"/>
    </person>
    <person id="ped174" depart="1896.70" type="ped_pedestrian">
        <personTrip from="668453151#0" to="-775633682#5" modes="public"/>
    </person>
    <person id="ped175" depart="1907.60" type="ped_pedestrian">
        <personTrip from="944879878#4" to="232866961#9" modes="public"/>
    </person>
    <person id="ped176" depart="1918.50" type="ped_pedestrian">
        <personTrip from="781757770" to="-474953695#0" modes="public"/>
    </person>
    <person id="ped177" depart="1929.40" type="ped_pedestrian">
        <personTrip from="939129752" to="-673071137#0" modes="public"/>
    </person>
    <person id="ped178" depart="1940.30" type="ped_pedestrian">
        <personTrip from="859982141" to="-700995753#2" modes="public"/>
    </person>
    <person id="ped179" depart="1951.20" type="ped_pedestrian">
        <personTrip from="-474953693#2" to="-777424817#0" modes="public"/>
    </person>
    <person id="ped180" depart="1962.10" type="ped_pedestrian">
        <personTrip from="678149258#1" to="-713193420" modes="public"/>
    </person>
    <person id="ped181" depart="1973.00" type="ped_pedestrian">
        <personTrip from="474953693#6" to="232866953#1" modes="public"/>
    </person>
    <person id="ped182" depart="1983.90" type="ped_pedestrian">
        <personTrip from="-775633679#2" to="432521766#3" modes="public"/>
    </person>
    <person id="ped183" depart="1994.80" type="ped_pedestrian">
        <personTrip from="-700995750#1" to="673076844" modes="public"/>
    </person>
    <person id="ped184" depart="2005.70" type="ped_pedestrian">
        <personTrip from="-1009372632" to="777424817#4" modes="public"/>
    </person>
    <person id="ped185" depart="2016.60" type="ped_pedestrian">
        <personTrip from="232866967" to="673257112" modes="public"/>
    </person>
    <person id="ped186" depart="2027.50" type="ped_pedestrian">
        <personTrip from="700995751#0" to="673071134#3" modes="public"/>
    </person>
    <person id="ped187" depart="2038.40" type="ped_pedestrian">
        <personTrip from="-775633668#1" to="-344157304#0" modes="public"/>
    </person>
    <person id="ped188" depart="2049.30" type="ped_pedestrian">
        <personTrip from="673071134#0" to="-753613765#0" modes="public"/>
    </person>
    <person id="ped189" depart="2060.20" type="ped_pedestrian">
        <personTrip from="-713193420" to="775633668#0" modes="public"/>
    </person>
    <person id="ped190" depart="2071.10" type="ped_pedestrian">
        <personTrip from="673257112" to="-701455101#6" modes="public"/>
    </person>
    <person id="ped191" depart="2082.00" type="ped_pedestrian">
        <personTrip from="-707537512#1" to="-775633684#0" modes="public"/>
    </person>
    <person id="ped192" depart="2092.90" type="ped_pedestrian">
        <personTrip from="-775633682#6" to="-701455101#4" modes="public"/>
    </person>
    <person id="ped193" depart="2103.81" type="ped_pedestrian">
        <personTrip from="-489467547#1" to="-775633688#3" modes="public"/>
    </person>
    <person id="ped194" depart="2114.71" type="ped_pedestrian">