<?xml version="1.0" encoding="UTF-8"?>

<!-- generated on 2022-07-14 15:47:17 by Eclipse SUMO netconvert Version 1.14.0
<configuration xmlns:xsi="http://www.w3.org/2001/XMLSchema-instance" xsi:noNamespaceSchemaLocation="http://sumo.dlr.de/xsd/netconvertConfiguration.xsd">

    <input>
        <type-files value="/usr/local/opt/sumo/share/sumo/data/typemap/osmNetconvert.typ.xml,/usr/local/opt/sumo/share/sumo/data/typemap/osmNetconvertUrbanDe.typ.xml,/usr/local/opt/sumo/share/sumo/data/typemap/osmNetconvertPedestrians.typ.xml,/usr/local/opt/sumo/share/sumo/data/typemap/osmNetconvertBicycle.typ.xml"/>
        <osm-files value="osm_bbox.osm.xml.gz"/>
    </input>

    <output>
        <output-file value="osm.net.xml"/>
        <output.street-names value="true"/>
        <output.original-names value="true"/>
        <ptstop-output value="osm_stops.add.xml"/>
        <ptline-output value="osm_ptlines.xml"/>
    </output>

    <projection>
        <proj value="+proj=merc +a=6378137 +b=6378137 +lat_ts=0.0 +lon_0=0.0 +x_0=0.0 +y_0=0 +k=1.0 +units=m +nadgrids=@null +wktext +no_defs"/>
    </projection>

    <processing>
        <geometry.remove value="true"/>
        <roundabouts.guess value="true"/>
        <lefthand value="true"/>
    </processing>

    <tls_building>
        <tls.discard-simple value="true"/>
        <tls.join value="true"/>
        <tls.guess-signals value="true"/>
        <tls.default-type value="actuated"/>
    </tls_building>

    <ramp_guessing>
        <ramps.guess value="true"/>
    </ramp_guessing>

    <junctions>
        <junctions.join value="true"/>
        <junctions.corner-detail value="5"/>
    </junctions>

    <pedestrian>
        <crossings.guess value="true"/>
    </pedestrian>

    <railway>
        <railway.topology.repair value="true"/>
    </railway>

    <formats>
        <osm.bike-access value="true"/>
        <osm.sidewalks value="true"/>
    </formats>

    <report>
        <verbose value="true"/>
    </report>

</configuration>
-->

<net version="1.9" junctionCornerDetail="5" walkingareas="true" lefthand="true" limitTurnSpeed="5.50" xmlns:xsi="http://www.w3.org/2001/XMLSchema-instance" xsi:noNamespaceSchemaLocation="http://sumo.dlr.de/xsd/net_file.xsd">

    <location netOffset="-16600334.26,4202799.62" convBoundary="0.00,-0.00,1333.70,1063.71" origBoundary="149.123340,-35.285882,149.135321,-35.278082" projParameter="+proj=merc +a=6378137 +b=6378137 +lat_ts=0.0 +lon_0=0.0 +x_0=0.0 +y_0=0 +k=1.0 +units=m +nadgrids=@null +wktext +no_defs"/>

    <type id="cycleway.lane" allow="bicycle" bikeLaneWidth="1.00"/>
    <type id="cycleway.lane|highway.motorway_link" priority="9" numLanes="1" speed="16.67" disallow="pedestrian moped tram rail_urban rail rail_electric rail_fast ship" oneway="1" bikeLaneWidth="1.00"/>
    <type id="cycleway.lane|highway.secondary" priority="11" numLanes="1" speed="13.89" disallow="pedestrian tram rail_urban rail rail_electric rail_fast ship" oneway="0" sidewalkWidth="3.00" bikeLaneWidth="1.00"/>
    <type id="cycleway.lane|highway.trunk" priority="13" numLanes="2" speed="13.89" disallow="pedestrian tram rail_urban rail rail_electric rail_fast ship" oneway="0" bikeLaneWidth="1.00"/>
    <type id="cycleway.opposite_lane" allow="bicycle" bikeLaneWidth="1.00"/>
    <type id="cycleway.opposite_track" allow="bicycle" bikeLaneWidth="1.50"/>
    <type id="cycleway.track" allow="bicycle" bikeLaneWidth="1.50"/>
    <type id="highway.bridleway" priority="1" numLanes="1" speed="2.78" allow="pedestrian" oneway="1" width="2.00"/>
    <type id="highway.bus_guideway" priority="1" numLanes="1" speed="13.89" allow="bus" oneway="1"/>
    <type id="highway.cycleway" priority="1" numLanes="1" speed="5.56" allow="bicycle" oneway="0" width="1.00"/>
    <type id="highway.footway" priority="1" numLanes="1" speed="2.78" allow="pedestrian" oneway="1" width="2.00"/>
    <type id="highway.ford" priority="1" numLanes="1" speed="2.78" allow="army" oneway="0"/>
    <type id="highway.living_street" priority="2" numLanes="1" speed="2.78" disallow="tram rail_urban rail rail_electric rail_fast ship" oneway="0"/>
    <type id="highway.motorway" priority="14" numLanes="2" speed="27.78" allow="private emergency authority army vip passenger hov taxi bus coach delivery truck trailer motorcycle evehicle custom1 custom2" oneway="1"/>
    <type id="highway.motorway_link" priority="9" numLanes="1" speed="16.67" allow="private emergency authority army vip passenger hov taxi bus coach delivery truck trailer motorcycle evehicle custom1 custom2" oneway="1"/>
    <type id="highway.path" priority="1" numLanes="1" speed="5.56" allow="pedestrian bicycle" oneway="0" width="2.00"/>
    <type id="highway.pedestrian" priority="1" numLanes="1" speed="2.78" allow="pedestrian" oneway="1" width="2.00"/>
    <type id="highway.primary" priority="12" numLanes="2" speed="13.89" disallow="pedestrian tram rail_urban rail rail_electric rail_fast ship" oneway="0" sidewalkWidth="3.00"/>
    <type id="highway.primary_link" priority="7" numLanes="1" speed="13.89" disallow="pedestrian tram rail_urban rail rail_electric rail_fast ship" oneway="0" sidewalkWidth="3.00"/>
    <type id="highway.raceway" priority="15" numLanes="2" speed="83.33" allow="vip" oneway="0"/>
    <type id="highway.residential" priority="3" numLanes="1" speed="13.89" disallow="pedestrian tram rail_urban rail rail_electric rail_fast ship" oneway="0" sidewalkWidth="2.00"/>
    <type id="highway.secondary" priority="11" numLanes="1" speed="13.89" disallow="pedestrian tram rail_urban rail rail_electric rail_fast ship" oneway="0" sidewalkWidth="3.00"/>
    <type id="highway.secondary_link" priority="6" numLanes="1" speed="13.89" disallow="pedestrian tram rail_urban rail rail_electric rail_fast ship" oneway="0" sidewalkWidth="3.00"/>
    <type id="highway.service" priority="1" numLanes="1" speed="5.56" allow="pedestrian delivery bicycle" oneway="0"/>
    <type id="highway.stairs" priority="1" numLanes="1" speed="1.39" allow="pedestrian" oneway="1" width="2.00"/>
    <type id="highway.step" priority="1" numLanes="1" speed="1.39" allow="pedestrian" oneway="1" width="2.00"/>
    <type id="highway.steps" priority="1" numLanes="1" speed="1.39" allow="pedestrian" oneway="1" width="2.00"/>
    <type id="highway.tertiary" priority="10" numLanes="1" speed="13.89" disallow="pedestrian tram rail_urban rail rail_electric rail_fast ship" oneway="0" sidewalkWidth="3.00"/>
    <type id="highway.tertiary_link" priority="5" numLanes="1" speed="13.89" disallow="pedestrian tram rail_urban rail rail_electric rail_fast ship" oneway="0" sidewalkWidth="2.00"/>
    <type id="highway.track" priority="1" numLanes="1" speed="5.56" allow="pedestrian motorcycle moped bicycle" oneway="0"/>
    <type id="highway.trunk" priority="13" numLanes="2" speed="13.89" disallow="pedestrian bicycle tram rail_urban rail rail_electric rail_fast ship" oneway="0"/>
    <type id="highway.trunk_link" priority="8" numLanes="1" speed="13.89" disallow="pedestrian bicycle tram rail_urban rail rail_electric rail_fast ship" oneway="0"/>
    <type id="highway.unclassified" priority="4" numLanes="1" speed="13.89" disallow="pedestrian tram rail_urban rail rail_electric rail_fast ship" oneway="0" sidewalkWidth="2.00"/>
    <type id="highway.unsurfaced" priority="1" numLanes="1" speed="8.33" disallow="tram rail_urban rail rail_electric rail_fast ship" oneway="0"/>
    <type id="railway.highspeed" priority="21" numLanes="1" speed="69.44" allow="rail_fast" oneway="1"/>
    <type id="railway.light_rail" priority="19" numLanes="1" speed="27.78" allow="rail_urban" oneway="1"/>
    <type id="railway.preserved" priority="16" numLanes="1" speed="27.78" allow="rail" oneway="1"/>
    <type id="railway.rail" priority="20" numLanes="1" speed="44.44" allow="rail" oneway="1"/>
    <type id="railway.subway" priority="18" numLanes="1" speed="27.78" allow="rail_urban" oneway="1"/>
    <type id="railway.tram" priority="17" numLanes="1" speed="13.89" allow="tram" oneway="1"/>

    <edge id=":100937479_0" function="internal">
        <lane id=":100937479_0_0" index="0" allow="pedestrian bicycle" speed="2.78" length="2.92" width="2.00" shape="196.95,718.48 196.18,718.00 195.62,717.97 195.27,718.41 195.12,719.30"/>
    </edge>
    <edge id=":100948572_0" function="internal">
        <lane id=":100948572_0_0" index="0" disallow="pedestrian tram rail_urban rail rail_electric rail_fast ship" speed="11.11" length="6.81" shape="445.28,863.12 443.61,862.25 442.69,861.27 441.82,860.20 440.28,859.04"/>
        <lane id=":100948572_0_1" index="1" disallow="pedestrian tram rail_urban rail rail_electric rail_fast ship" speed="11.11" length="6.81" shape="444.19,866.13 442.37,865.20 441.34,864.18 440.36,863.05 438.68,861.81"/>
    </edge>
    <edge id=":1324668093_0" function="internal">
        <lane id=":1324668093_0_0" index="0" allow="bicycle" speed="16.67" length="8.41" width="1.00" shape="640.05,715.71 639.79,718.19 639.65,719.90 639.57,721.60 639.54,724.10"/>
    </edge>
    <edge id=":1324668093_1" function="internal">
        <lane id=":1324668093_1_0" index="0" allow="bicycle" speed="3.21" length="1.61" width="1.00" shape="640.05,715.71 640.73,716.98 640.87,717.07"/>
    </edge>
    <edge id=":1324668093_7" function="internal">
        <lane id=":1324668093_7_0" index="0" allow="bicycle" speed="3.21" length="3.06" width="1.00" shape="640.87,717.07 641.49,717.46 642.33,717.13 643.24,716.02"/>
    </edge>
    <edge id=":1324668093_2" function="internal">
        <lane id=":1324668093_2_0" index="0" disallow="pedestrian tram rail_urban rail rail_electric rail_fast ship" speed="16.67" length="7.98" shape="648.04,724.19 648.07,721.90 648.14,720.33 648.28,718.77 648.52,716.49"/>
        <lane id=":1324668093_2_1" index="1" disallow="pedestrian tram rail_urban rail rail_electric rail_fast ship" speed="16.67" length="7.98" shape="644.84,724.15 644.87,721.78 644.94,720.17 645.09,718.55 645.33,716.20"/>
        <lane id=":1324668093_2_2" index="2" disallow="pedestrian tram rail_urban rail rail_electric rail_fast ship" speed="16.67" length="7.98" shape="641.64,724.12 641.67,721.67 641.75,720.00 641.89,718.33 642.14,715.90"/>
    </edge>
    <edge id=":1324668093_5" function="internal">
        <lane id=":1324668093_5_0" index="0" disallow="pedestrian bicycle tram rail_urban rail rail_electric rail_fast ship" speed="15.28" length="1.88" shape="641.64,724.12 641.46,722.25"/>
    </edge>
    <edge id=":1324668093_6" function="internal">
        <lane id=":1324668093_6_0" index="0" allow="bicycle" speed="2.68" length="1.01" width="1.00" shape="640.54,724.11 640.29,723.73 640.04,723.60 639.79,723.72"/>
    </edge>
    <edge id=":1324668093_8" function="internal">
        <lane id=":1324668093_8_0" index="0" disallow="pedestrian bicycle tram rail_urban rail rail_electric rail_fast ship" speed="15.28" length="6.95" shape="641.46,722.25 641.39,721.56 640.77,719.87 640.01,718.19 639.39,715.65"/>
    </edge>
    <edge id=":1324668093_9" function="internal">
        <lane id=":1324668093_9_0" index="0" allow="bicycle" speed="2.68" length="0.45" width="1.00" shape="639.79,723.72 639.54,724.10"/>
    </edge>
    <edge id=":1324668093_c0" function="crossing" crossingEdges="117617939#0">
        <lane id=":1324668093_c0_0" index="0" allow="pedestrian" speed="1.00" length="3.20" width="4.00" shape="641.26,717.40 638.09,717.86"/>
    </edge>
    <edge id=":1324668093_w0" function="walkingarea">
        <lane id=":1324668093_w0_0" index="0" allow="pedestrian" speed="1.00" length="3.26" width="4.00" shape="641.55,719.37 640.97,715.42 637.56,715.47 639.55,715.68"/>
    </edge>
    <edge id=":1324668093_w1" function="walkingarea">
        <lane id=":1324668093_w1_0" index="0" allow="pedestrian" speed="1.00" length="6.22" width="4.00" shape="639.04,724.09 637.04,724.07 637.80,715.88 638.11,717.63 638.40,718.91 638.66,719.97 638.87,721.03 639.00,722.33"/>
    </edge>
    <edge id=":1324668096_0" function="internal">
        <lane id=":1324668096_0_0" index="0" allow="bicycle" speed="16.67" length="20.04" width="1.00" shape="604.89,730.78 603.78,726.38 602.14,721.15 600.27,715.99 598.49,711.82"/>
    </edge>
    <edge id=":1324668096_1" function="internal">
        <lane id=":1324668096_1_0" index="0" allow="bicycle" speed="3.21" length="1.64" width="1.00" shape="604.89,730.78 603.87,729.76 603.68,729.71"/>
    </edge>
    <edge id=":1324668096_8" function="internal">
        <lane id=":1324668096_8_0" index="0" allow="bicycle" speed="3.21" length="3.04" width="1.00" shape="603.68,729.71 603.01,729.53 602.30,730.08 601.76,731.42"/>
    </edge>
    <edge id=":1324668096_2" function="internal">
        <lane id=":1324668096_2_0" index="0" disallow="pedestrian tram rail_urban rail rail_electric rail_fast ship" speed="16.67" length="19.38" shape="590.42,714.66 592.85,719.72 594.33,723.28 595.39,726.99 596.57,732.48"/>
        <lane id=":1324668096_2_1" index="1" disallow="pedestrian tram rail_urban rail rail_electric rail_fast ship" speed="16.67" length="19.38" shape="593.46,713.59 595.94,718.77 597.44,722.42 598.50,726.22 599.70,731.84"/>
        <lane id=":1324668096_2_2" index="2" disallow="pedestrian tram rail_urban rail rail_electric rail_fast ship" speed="16.67" length="19.38" shape="596.50,712.52 599.03,717.82 600.54,721.56 601.62,725.45 602.84,731.20"/>
    </edge>
    <edge id=":1324668096_5" function="internal">
        <lane id=":1324668096_5_0" index="0" allow="bicycle" speed="2.70" length="0.75" width="1.00" shape="597.49,712.04 597.82,712.36 598.10,712.44"/>
    </edge>
    <edge id=":1324668096_9" function="internal">
        <lane id=":1324668096_9_0" index="0" allow="bicycle" speed="2.70" length="0.75" width="1.00" shape="598.10,712.44 598.32,712.25 598.49,711.82"/>
    </edge>
    <edge id=":1324668096_6" function="internal">
        <lane id=":1324668096_6_0" index="0" disallow="pedestrian bicycle tram rail_urban rail rail_electric rail_fast ship" speed="15.28" length="20.80" shape="602.98,711.10 601.66,714.94 600.10,719.43 599.16,724.94 599.70,731.84"/>
        <lane id=":1324668096_6_1" index="1" disallow="pedestrian bicycle tram rail_urban rail rail_electric rail_fast ship" speed="15.28" length="20.80" shape="602.98,711.10 602.16,714.90 601.70,719.28 601.84,724.59 602.84,731.20"/>
    </edge>
    <edge id=":14868287_0" function="internal">
        <lane id=":14868287_0_0" index="0" disallow="pedestrian tram rail_urban rail rail_electric rail_fast ship" speed="11.11" length="8.15" shape="883.10,345.17 881.89,343.14 881.40,341.54 880.95,339.93 879.82,337.84"/>
        <lane id=":14868287_0_1" index="1" disallow="pedestrian tram rail_urban rail rail_electric rail_fast ship" speed="11.11" length="8.15" shape="880.54,347.09 879.30,345.02 878.80,343.41 878.33,341.77 877.17,339.65"/>
    </edge>
    <edge id=":14984336_0" function="internal">
        <lane id=":14984336_0_0" index="0" disallow="pedestrian tram rail_urban rail rail_electric rail_fast ship" speed="16.67" length="41.28" shape="506.88,393.56 478.27,423.46"/>
        <lane id=":14984336_0_1" index="1" disallow="pedestrian tram rail_urban rail rail_electric rail_fast ship" speed="16.67" length="41.28" shape="509.18,395.79 480.63,425.62"/>
        <lane id=":14984336_0_2" index="2" disallow="pedestrian tram rail_urban rail rail_electric rail_fast ship" speed="16.67" length="41.28" shape="511.47,398.03 483.00,427.77"/>
    </edge>
    <edge id=":14984336_3" function="internal">
        <lane id=":14984336_3_0" index="0" allow="bicycle" speed="2.68" length="1.11" width="1.00" shape="512.26,398.79 512.18,399.24 512.27,399.50 512.54,399.59 512.63,399.56"/>
    </edge>
    <edge id=":14984336_8" function="internal">
        <lane id=":14984336_8_0" index="0" allow="bicycle" speed="2.68" length="0.35" width="1.00" shape="512.63,399.56 512.98,399.49"/>
    </edge>
    <edge id=":14984336_4" function="internal">
        <lane id=":14984336_4_0" index="0" disallow="pedestrian bicycle tram rail_urban rail rail_electric rail_fast ship" speed="16.67" length="41.66" shape="514.95,401.67 509.26,405.03 500.03,410.54 489.68,417.60 480.63,425.62"/>
        <lane id=":14984336_4_1" index="1" disallow="pedestrian bicycle tram rail_urban rail rail_electric rail_fast ship" speed="16.67" length="41.66" shape="514.95,401.67 509.63,405.37 501.21,411.62 491.67,419.42 483.00,427.77"/>
    </edge>
    <edge id=":14984336_6" function="internal">
        <lane id=":14984336_6_0" index="0" allow="bicycle" speed="16.67" length="41.11" width="1.00" shape="484.55,429.19 512.98,399.49"/>
    </edge>
    <edge id=":14984336_7" function="internal">
        <lane id=":14984336_7_0" index="0" allow="bicycle" speed="3.21" length="1.58" width="1.00" shape="484.55,429.19 484.76,427.77 484.71,427.64"/>
    </edge>
    <edge id=":14984336_9" function="internal">
        <lane id=":14984336_9_0" index="0" allow="bicycle" speed="3.21" length="3.09" width="1.00" shape="484.71,427.64 484.44,426.93 483.58,426.69 482.18,427.03"/>
    </edge>
    <edge id=":15069254_0" function="internal">
        <lane id=":15069254_0_0" index="0" disallow="pedestrian tram rail_urban rail rail_electric rail_fast ship" speed="11.11" length="7.33" shape="230.11,573.39 229.64,571.40 229.74,569.95 229.92,568.48 229.70,566.42"/>
        <lane id=":15069254_0_1" index="1" disallow="pedestrian tram rail_urban rail rail_electric rail_fast ship" speed="11.11" length="7.33" shape="230.11,573.39 229.14,571.48 228.18,570.31 227.29,569.11 226.58,567.12"/>
        <lane id=":15069254_0_2" index="2" disallow="pedestrian tram rail_urban rail rail_electric rail_fast ship" speed="11.11" length="7.33" shape="227.11,574.50 226.10,572.48 225.10,571.22 224.20,569.93 223.46,567.83"/>
    </edge>
    <edge id=":1520984726_0" function="internal">
        <lane id=":1520984726_0_0" index="0" allow="bicycle" speed="16.67" length="8.30" width="1.00" shape="531.83,654.80 524.78,650.40"/>
    </edge>
    <edge id=":1520984726_1" function="internal">
        <lane id=":1520984726_1_0" index="0" allow="bicycle" speed="3.21" length="1.67" width="1.00" shape="531.83,654.80 530.39,654.80 530.19,654.91"/>
    </edge>
    <edge id=":1520984726_7" function="internal">
        <lane id=":1520984726_7_0" index="0" allow="bicycle" speed="3.21" length="3.00" width="1.00" shape="530.19,654.91 529.61,655.24 529.50,656.13 530.06,657.46"/>
    </edge>
    <edge id=":1520984726_2" function="internal">
        <lane id=":1520984726_2_0" index="0" disallow="pedestrian tram rail_urban rail rail_electric rail_fast ship" speed="16.67" length="7.98" shape="520.54,657.77 527.14,661.89"/>
        <lane id=":1520984726_2_1" index="1" disallow="pedestrian tram rail_urban rail rail_electric rail_fast ship" speed="16.67" length="7.98" shape="522.14,654.99 528.91,659.22"/>
        <lane id=":1520984726_2_2" index="2" disallow="pedestrian tram rail_urban rail rail_electric rail_fast ship" speed="16.67" length="7.98" shape="523.73,652.22 530.67,656.55"/>
    </edge>
    <edge id=":1520984726_5" function="internal">
        <lane id=":1520984726_5_0" index="0" disallow="pedestrian bicycle tram rail_urban rail rail_electric rail_fast ship" speed="16.67" length="8.61" shape="523.73,652.22 526.03,653.25 527.77,653.56 529.54,653.80 531.94,654.63"/>
    </edge>
    <edge id=":1520984726_6" function="internal">
        <lane id=":1520984726_6_0" index="0" allow="bicycle" speed="2.68" length="1.01" width="1.00" shape="524.28,651.27 524.73,651.24 524.97,651.09 524.98,650.81"/>
    </edge>
    <edge id=":1520984726_8" function="internal">
        <lane id=":1520984726_8_0" index="0" allow="bicycle" speed="2.68" length="0.45" width="1.00" shape="524.98,650.81 524.78,650.40"/>
    </edge>
    <edge id=":1520984745_0" function="internal">
        <lane id=":1520984745_0_0" index="0" allow="bicycle" speed="4.65" length="4.54" width="2.00" shape="852.60,790.67 851.42,789.98 850.72,789.16 850.51,788.21 850.79,787.13"/>
    </edge>
    <edge id=":1520984745_1" function="internal">
        <lane id=":1520984745_1_0" index="0" allow="pedestrian bicycle" speed="2.78" length="9.56" width="2.00" shape="852.60,790.67 843.84,786.84"/>
    </edge>
    <edge id=":1520984745_2" function="internal">
        <lane id=":1520984745_2_0" index="0" allow="pedestrian bicycle" speed="2.78" length="2.39" width="2.00" shape="852.60,790.67 851.71,790.83 851.28,791.19 851.31,791.75 851.51,792.06"/>
    </edge>
    <edge id=":1520984745_10" function="internal">
        <lane id=":1520984745_10_0" index="0" allow="pedestrian bicycle" speed="2.78" length="0.53" width="2.00" shape="851.51,792.06 851.79,792.50"/>
    </edge>
    <edge id=":1520984745_3" function="internal">
        <lane id=":1520984745_3_0" index="0" allow="bicycle" speed="5.09" length="4.90" width="2.00" shape="847.61,793.71 848.35,792.70 849.29,792.16 850.44,792.10 851.79,792.50"/>
    </edge>
    <edge id=":1520984745_4" function="internal">
        <lane id=":1520984745_4_0" index="0" disallow="pedestrian tram rail_urban rail rail_electric rail_fast ship" speed="11.11" length="7.24" shape="847.61,793.71 850.79,787.13"/>
        <lane id=":1520984745_4_1" index="1" disallow="pedestrian tram rail_urban rail rail_electric rail_fast ship" speed="11.11" length="7.24" shape="844.76,792.25 847.88,785.80"/>
    </edge>
    <edge id=":1520984745_6" function="internal">
        <lane id=":1520984745_6_0" index="0" allow="bicycle" speed="5.45" length="6.29" width="2.00" shape="844.76,792.25 845.49,790.38 845.58,788.85 845.03,787.67 843.84,786.84"/>
    </edge>
    <edge id=":1520984745_7" function="internal">
        <lane id=":1520984745_7_0" index="0" allow="pedestrian bicycle" speed="2.78" length="9.55" width="2.00" shape="843.04,788.67 851.79,792.50"/>
    </edge>
    <edge id=":1520984745_8" function="internal">
        <lane id=":1520984745_8_0" index="0" allow="bicycle" speed="5.45" length="0.59" width="2.00" shape="843.04,788.67 843.62,788.79"/>
    </edge>
    <edge id=":1520984745_9" function="internal">
        <lane id=":1520984745_9_0" index="0" allow="pedestrian bicycle" speed="2.78" length="2.39" width="2.00" shape="843.04,788.67 843.93,788.51 844.36,788.15 844.33,787.60 844.13,787.29"/>
    </edge>
    <edge id=":1520984745_11" function="internal">
        <lane id=":1520984745_11_0" index="0" allow="bicycle" speed="5.45" length="5.75" width="2.00" shape="843.62,788.79 844.45,788.97 845.72,788.59 846.87,787.54 847.88,785.80"/>
    </edge>
    <edge id=":1520984745_12" function="internal">
        <lane id=":1520984745_12_0" index="0" allow="pedestrian bicycle" speed="2.78" length="0.53" width="2.00" shape="844.13,787.29 843.84,786.84"/>
    </edge>
    <edge id=":1520984745_c0" function="crossing" crossingEdges="489692411#1">
        <lane id=":1520984745_c0_0" index="0" allow="pedestrian" speed="1.00" length="6.40" width="4.00" shape="844.24,789.74 849.94,792.65"/>
    </edge>
    <edge id=":1520984745_w0" function="walkingarea">
        <lane id=":1520984745_w0_0" index="0" allow="pedestrian" speed="1.00" length="2.39" width="4.00" shape="853.00,789.76 852.20,791.59 852.20,791.59 851.39,793.42 849.03,794.43 850.85,790.87"/>
    </edge>
    <edge id=":1520984745_w1" function="walkingarea">
        <lane id=":1520984745_w1_0" index="0" allow="pedestrian" speed="1.00" length="2.18" width="4.00" shape="845.15,787.96 843.33,791.52 842.64,789.59 843.44,787.75 843.44,787.75 844.25,785.92"/>
    </edge>
    <edge id=":2196967377_0" function="internal">
        <lane id=":2196967377_0_0" index="0" allow="pedestrian bicycle" speed="2.78" length="2.92" width="2.00" shape="980.19,170.82 980.49,171.67 980.92,172.04 981.46,171.92 982.13,171.31"/>
    </edge>
    <edge id=":2196967382_0" function="internal">
        <lane id=":2196967382_0_0" index="0" allow="pedestrian bicycle" speed="2.78" length="2.92" width="2.00" shape="938.99,114.34 939.29,115.20 939.71,115.56 940.26,115.45 940.93,114.84"/>
    </edge>
    <edge id=":2196967387_0" function="internal">
        <lane id=":2196967387_0_0" index="0" allow="pedestrian bicycle" speed="2.78" length="2.92" width="2.00" shape="946.19,94.47 945.90,93.62 945.48,93.25 944.93,93.37 944.26,93.97"/>
    </edge>
    <edge id=":2203957197_0" function="internal">
        <lane id=":2203957197_0_0" index="0" allow="pedestrian bicycle" speed="2.78" length="4.97" width="2.00" shape="1061.01,227.58 1065.04,224.68"/>
    </edge>
    <edge id=":2203957197_1" function="internal">
        <lane id=":2203957197_1_0" index="0" allow="pedestrian bicycle" speed="2.78" length="2.92" width="2.00" shape="1061.01,227.58 1061.34,226.75 1061.25,226.19 1060.76,225.93 1059.86,225.94"/>
    </edge>
    <edge id=":2203957197_2" function="internal">
        <lane id=":2203957197_2_0" index="0" allow="pedestrian bicycle" speed="2.78" length="4.91" width="2.00" shape="1063.85,223.08 1059.86,225.94"/>
    </edge>
    <edge id=":2203957197_3" function="internal">
        <lane id=":2203957197_3_0" index="0" allow="pedestrian bicycle" speed="2.78" length="2.92" width="2.00" shape="1063.85,223.08 1063.54,223.93 1063.64,224.48 1064.14,224.73 1065.04,224.68"/>
    </edge>
    <edge id=":2203957197_w0" function="walkingarea">
        <lane id=":2203957197_w0_0" index="0" allow="pedestrian" speed="1.00" length="3.89" width="2.00" shape="1063.85,223.08 1065.04,224.68 1064.44,223.88 1065.64,225.49 1065.31,227.59 1063.69,228.77 1061.58,228.41 1060.43,226.76 1060.43,226.76 1059.29,225.12 1063.25,222.27 1064.44,223.88"/>
    </edge>
    <edge id=":2203957198_0" function="internal">
        <lane id=":2203957198_0_0" index="0" allow="pedestrian bicycle" speed="2.78" length="4.98" width="2.00" shape="1080.05,211.04 1076.06,214.02"/>
    </edge>
    <edge id=":2203957198_1" function="internal">
        <lane id=":2203957198_1_0" index="0" allow="pedestrian bicycle" speed="2.78" length="2.92" width="2.00" shape="1080.05,211.04 1079.75,211.89 1079.85,212.44 1080.35,212.69 1081.25,212.63"/>
    </edge>
    <edge id=":2203957198_2" function="internal">
        <lane id=":2203957198_2_0" index="0" allow="pedestrian bicycle" speed="2.78" length="4.99" width="2.00" shape="1077.25,215.62 1081.25,212.63"/>
    </edge>
    <edge id=":2203957198_3" function="internal">
        <lane id=":2203957198_3_0" index="0" allow="pedestrian bicycle" speed="2.78" length="2.92" width="2.00" shape="1077.25,215.62 1077.55,214.77 1077.46,214.22 1076.96,213.97 1076.06,214.02"/>
    </edge>
    <edge id=":2203957198_w0" function="walkingarea">
        <lane id=":2203957198_w0_0" index="0" allow="pedestrian" speed="1.00" length="3.90" width="2.00" shape="1079.44,210.24 1080.65,211.83 1080.65,211.83 1081.85,213.43 1081.55,215.55 1079.94,216.74 1077.85,216.43 1076.65,214.82 1077.25,215.62 1076.06,214.02 1076.65,214.82 1075.46,213.21"/>
    </edge>
    <edge id=":2324964525_0" function="internal">
        <lane id=":2324964525_0_0" index="0" disallow="pedestrian bicycle tram rail_urban rail rail_electric rail_fast ship" speed="11.11" length="7.11" shape="530.50,339.59 526.79,345.65"/>
    </edge>
    <edge id=":2324964525_1" function="internal">
        <lane id=":2324964525_1_0" index="0" allow="pedestrian bicycle" speed="2.78" length="5.74" width="2.00" shape="531.90,343.31 526.90,340.48"/>
    </edge>
    <edge id=":2324964525_2" function="internal">
        <lane id=":2324964525_2_0" index="0" allow="pedestrian bicycle" speed="2.78" length="2.92" width="2.00" shape="531.90,343.31 531.00,343.38 530.54,343.69 530.51,344.25 530.91,345.05"/>
    </edge>
    <edge id=":2324964525_3" function="internal">
        <lane id=":2324964525_3_0" index="0" allow="pedestrian bicycle" speed="2.78" length="6.14" width="2.00" shape="525.57,342.03 530.91,345.05"/>
    </edge>
    <edge id=":2324964525_4" function="internal">
        <lane id=":2324964525_4_0" index="0" allow="pedestrian bicycle" speed="2.78" length="2.98" width="2.00" shape="525.57,342.03 526.48,342.14 527.01,341.92 527.15,341.37 526.90,340.48"/>
    </edge>
    <edge id=":2324964525_c0" function="crossing" crossingEdges="488680655#1">
        <lane id=":2324964525_c0_0" index="0" allow="pedestrian" speed="1.00" length="3.20" width="4.00" shape="526.47,343.11 529.20,344.78"/>
    </edge>
    <edge id=":2324964525_w0" function="walkingarea">
        <lane id=":2324964525_w0_0" index="0" allow="pedestrian" speed="1.00" length="2.27" width="4.00" shape="532.39,342.44 531.41,344.18 531.41,344.18 530.42,345.92 528.16,346.49 530.24,343.07"/>
    </edge>
    <edge id=":2324964525_w1" function="walkingarea">
        <lane id=":2324964525_w1_0" index="0" allow="pedestrian" speed="1.00" length="2.04" width="4.00" shape="527.51,341.41 525.43,344.82 525.08,342.90 526.06,341.16 526.40,341.35 527.39,339.61"/>
    </edge>
    <edge id=":2324964538_0" function="internal">
        <lane id=":2324964538_0_0" index="0" allow="pedestrian bicycle" speed="2.78" length="7.93" width="2.00" shape="444.47,221.77 443.24,221.23 441.38,219.64 439.55,217.86 438.42,216.75"/>
    </edge>
    <edge id=":2324964538_1" function="internal">
        <lane id=":2324964538_1_0" index="0" allow="pedestrian bicycle" speed="2.78" length="3.07" width="2.00" shape="444.47,221.77 443.52,221.76 443.01,222.04 442.93,222.63 443.28,223.50"/>
    </edge>
    <edge id=":2324964538_2" function="internal">
        <lane id=":2324964538_2_0" index="0" disallow="pedestrian bicycle tram rail_urban rail rail_electric rail_fast ship" speed="11.11" length="8.72" shape="437.10,222.29 439.24,220.85 440.81,220.02 442.44,219.31 444.78,218.21"/>
    </edge>
    <edge id=":2324964538_3" function="internal">
        <lane id=":2324964538_3_0" index="0" allow="pedestrian bicycle" speed="2.78" length="8.07" width="2.00" shape="437.12,218.28 443.28,223.50"/>
    </edge>
    <edge id=":2324964538_4" function="internal">